1
                    3D
 Schrodinger Suite 2021-2.
 41 42  0  0  1  0            999 V2000
   -1.6495    6.0262    0.1786 C   0  0  0  0  0  0
   -1.2339    4.5663    0.1335 C   0  0  0  0  0  0
   -1.1720    3.9041   -1.1120 C   0  0  0  0  0  0
   -0.7904    2.5514   -1.1829 C   0  0  0  0  0  0
   -0.4667    1.8579   -0.0013 C   0  0  0  0  0  0
    0.0191    0.1361   -0.0832 S   0  0  0  0  0  0
   -0.3028   -0.5012    1.2032 O   0  0  0  0  0  0
   -0.4903   -0.4338   -1.3404 O   0  0  0  0  0  0
    1.7467    0.2341   -0.2006 N   0  0  2  0  0  0
    2.5241    0.5918    0.9917 C   0  0  0  0  0  0
    4.2399    0.7386    0.4637 S   0  0  0  0  0  0
    3.7060    1.3526   -1.1396 C   0  0  0  0  0  0
    2.3801    0.6462   -1.4730 C   0  0  1  0  0  0
    2.5792   -0.4749   -2.5069 C   0  0  0  0  0  0
    2.9322   -0.1889   -3.6508 O   0  0  0  0  0  0
    2.3440   -1.7355   -2.1089 N   0  0  0  0  0  0
    2.4121   -2.9171   -2.9608 C   0  0  0  0  0  0
    1.0603   -3.2160   -3.6305 C   0  0  0  0  0  0
    1.1668   -4.3314   -4.3515 F   0  0  0  0  0  0
    0.1171   -3.3939   -2.7053 F   0  0  0  0  0  0
    0.6993   -2.2198   -4.4396 F   0  0  0  0  0  0
   -0.5292    2.5066    1.2472 C   0  0  0  0  0  0
   -0.9100    3.8633    1.3205 C   0  0  0  0  0  0
   -0.9655    4.5465    2.6753 C   0  0  0  0  0  0
   -1.8692    6.4088   -0.8185 H   0  0  0  0  0  0
   -2.5443    6.1502    0.7889 H   0  0  0  0  0  0
   -0.8529    6.6369    0.6039 H   0  0  0  0  0  0
   -1.4179    4.4321   -2.0219 H   0  0  0  0  0  0
   -0.7453    2.0556   -2.1413 H   0  0  0  0  0  0
    2.1844    1.5518    1.3799 H   0  0  0  0  0  0
    2.4132   -0.1624    1.7709 H   0  0  0  0  0  0
    3.5394    2.4269   -1.0549 H   0  0  0  0  0  0
    4.4883    1.2038   -1.8851 H   0  0  0  0  0  0
    1.7309    1.3784   -1.9537 H   0  0  0  0  0  0
    2.0535   -1.8796   -1.1522 H   0  0  0  0  0  0
    3.1943   -2.8049   -3.7136 H   0  0  0  0  0  0
    2.7062   -3.7610   -2.3366 H   0  0  0  0  0  0
   -0.2805    1.9645    2.1478 H   0  0  0  0  0  0
   -0.6870    3.8625    3.4777 H   0  0  0  0  0  0
   -0.2792    5.3932    2.7046 H   0  0  0  0  0  0
   -1.9732    4.9086    2.8795 H   0  0  0  0  0  0
  1  2  1  0  0  0
  1 25  1  0  0  0
  1 26  1  0  0  0
  1 27  1  0  0  0
  2 23  1  0  0  0
  2  3  2  0  0  0
  3  4  1  0  0  0
  3 28  1  0  0  0
  4  5  2  0  0  0
  4 29  1  0  0  0
  5  6  1  0  0  0
  5 22  1  0  0  0
  6  7  2  0  0  0
  6  8  2  0  0  0
  6  9  1  0  0  0
  9 13  1  0  0  0
  9 10  1  0  0  0
 10 11  1  0  0  0
 10 30  1  0  0  0
 10 31  1  0  0  0
 11 12  1  0  0  0
 12 13  1  0  0  0
 12 32  1  0  0  0
 12 33  1  0  0  0
 13 14  1  0  0  0
 13 34  1  0  0  0
 14 15  2  0  0  0
 14 16  1  0  0  0
 16 17  1  0  0  0
 16 35  1  0  0  0
 17 18  1  0  0  0
 17 36  1  0  0  0
 17 37  1  0  0  0
 18 19  1  0  0  0
 18 20  1  0  0  0
 18 21  1  0  0  0
 22 23  2  0  0  0
 22 38  1  0  0  0
 23 24  1  0  0  0
 24 39  1  0  0  0
 24 40  1  0  0  0
 24 41  1  0  0  0
M  END
$$$$
2
                    3D
 Schrodinger Suite 2021-2.
 40 42  0  0  1  0            999 V2000
   -2.7595   -2.8237   -1.2501 C   0  0  0  0  0  0
   -2.4493   -1.5099   -0.0017 S   0  0  0  0  0  0
   -3.1504   -0.2860   -0.4189 O   0  0  0  0  0  0
   -2.6763   -2.0688    1.3399 O   0  0  0  0  0  0
   -0.7561   -1.2243   -0.1689 N   0  0  0  0  0  0
   -0.0297   -0.2951    0.5808 C   0  0  0  0  0  0
   -0.5520    0.3970    1.4542 O   0  0  0  0  0  0
    1.4500   -0.2545    0.3214 C   0  0  0  0  0  0
    2.3328   -0.0276    1.3985 C   0  0  0  0  0  0
    3.7234    0.0376    1.1888 C   0  0  0  0  0  0
    4.7665    0.3057    2.5392 Cl  0  0  0  0  0  0
    4.2636   -0.1121   -0.1062 C   0  0  0  0  0  0
    5.6361   -0.0342   -0.2320 O   0  0  0  0  0  0
    6.2307   -0.1733   -1.5192 C   0  0  2  0  0  0
    6.2610   -1.6501   -1.9817 C   0  0  0  0  0  0
    7.7672   -1.9531   -2.0780 C   0  0  1  0  0  0
    8.3624   -1.2006   -3.2822 C   0  0  0  0  0  0
    8.3458    0.2645   -2.8070 C   0  0  0  0  0  0
    7.7326    0.1575   -1.3979 C   0  0  2  0  0  0
    8.3215   -1.1590   -0.9021 C   0  0  0  0  0  0
    3.3761   -0.3256   -1.1899 C   0  0  0  0  0  0
    1.9844   -0.3924   -0.9823 C   0  0  0  0  0  0
    1.1755   -0.5790   -2.0540 F   0  0  0  0  0  0
    5.7579    0.4924   -2.2430 H   0  0  0  0  0  0
    8.0018   -3.0179   -2.0676 H   0  0  0  0  0  0
    7.9417    1.0235   -0.7690 H   0  0  0  0  0  0
   -3.8162   -3.0905   -1.2382 H   0  0  0  0  0  0
   -2.4910   -2.4578   -2.2409 H   0  0  0  0  0  0
   -2.1628   -3.7037   -1.0110 H   0  0  0  0  0  0
   -0.3082   -1.8145   -0.8689 H   0  0  0  0  0  0
    1.9464    0.0930    2.4006 H   0  0  0  0  0  0
    5.7864   -2.3030   -1.2478 H   0  0  0  0  0  0
    5.7514   -1.7964   -2.9346 H   0  0  0  0  0  0
    9.3839   -1.5285   -3.4794 H   0  0  0  0  0  0
    7.7807   -1.3501   -4.1927 H   0  0  0  0  0  0
    9.3604    0.6619   -2.7582 H   0  0  0  0  0  0
    7.7654    0.9111   -3.4661 H   0  0  0  0  0  0
    7.9234   -1.4780    0.0628 H   0  0  0  0  0  0
    9.4120   -1.1556   -0.8567 H   0  0  0  0  0  0
    3.7384   -0.4402   -2.1996 H   0  0  0  0  0  0
  1  2  1  0  0  0
  1 27  1  0  0  0
  1 28  1  0  0  0
  1 29  1  0  0  0
  2  3  2  0  0  0
  2  4  2  0  0  0
  2  5  1  0  0  0
  5  6  1  0  0  0
  5 30  1  0  0  0
  6  7  2  0  0  0
  6  8  1  0  0  0
  8 22  1  0  0  0
  8  9  2  0  0  0
  9 10  1  0  0  0
  9 31  1  0  0  0
 10 11  1  0  0  0
 10 12  2  0  0  0
 12 13  1  0  0  0
 12 21  1  0  0  0
 13 14  1  0  0  0
 14 24  1  0  0  0
 14 19  1  0  0  0
 14 15  1  0  0  0
 15 16  1  0  0  0
 15 32  1  0  0  0
 15 33  1  0  0  0
 16 25  1  0  0  0
 16 20  1  0  0  0
 16 17  1  0  0  0
 17 18  1  0  0  0
 17 34  1  0  0  0
 17 35  1  0  0  0
 18 19  1  0  0  0
 18 36  1  0  0  0
 18 37  1  0  0  0
 19 26  1  0  0  0
 19 20  1  0  0  0
 20 38  1  0  0  0
 20 39  1  0  0  0
 21 22  2  0  0  0
 21 40  1  0  0  0
 22 23  1  0  0  0
M  END
$$$$
3
                    3D
 Schrodinger Suite 2021-2.
 38 39  0  0  1  0            999 V2000
   -0.2225    4.2422    2.2849 C   0  0  0  0  0  0
   -0.7289    3.6056    0.9885 C   0  0  0  0  0  0
   -0.3450    2.2416    0.9615 O   0  0  0  0  0  0
   -0.6320    1.4883   -0.1132 C   0  0  0  0  0  0
   -1.2278    1.8675   -1.1214 O   0  0  0  0  0  0
   -0.1408    0.0440    0.0243 C   0  0  0  0  0  0
    1.3249   -0.0204    0.0985 N   0  0  0  0  0  0
    1.9964   -0.0704    1.2605 C   0  0  0  0  0  0
    1.4713   -0.0621    2.3733 O   0  0  0  0  0  0
    3.7268   -0.1494    1.0859 S   0  0  0  0  0  0
    3.6199   -0.1043   -0.7103 C   0  0  1  0  0  0
    4.2947   -1.3193   -1.3769 C   0  0  0  0  0  0
    5.8038   -1.3230   -1.2096 C   0  0  0  0  0  0
    6.6051   -0.4818   -2.0085 C   0  0  0  0  0  0
    8.0054   -0.4837   -1.8578 C   0  0  0  0  0  0
    8.6190   -1.3255   -0.9041 C   0  0  0  0  0  0
   10.1312   -1.3462   -0.7378 C   0  0  0  0  0  0
   10.4510   -1.3924    0.5557 F   0  0  0  0  0  0
   10.6240   -2.4272   -1.3410 F   0  0  0  0  0  0
   10.6987   -0.2631   -1.2700 F   0  0  0  0  0  0
    7.8137   -2.1692   -0.1092 C   0  0  0  0  0  0
    6.4136   -2.1683   -0.2600 C   0  0  0  0  0  0
    2.1104   -0.0479   -1.0023 C   0  0  0  0  0  0
    1.6900   -0.0234   -2.1594 O   0  0  0  0  0  0
   -0.5081    5.2926    2.3390 H   0  0  0  0  0  0
   -0.6379    3.7370    3.1573 H   0  0  0  0  0  0
    0.8645    4.1869    2.3501 H   0  0  0  0  0  0
   -1.8151    3.6852    0.9291 H   0  0  0  0  0  0
   -0.3109    4.1284    0.1270 H   0  0  0  0  0  0
   -0.5907   -0.4017    0.9123 H   0  0  0  0  0  0
   -0.4965   -0.5394   -0.8260 H   0  0  0  0  0  0
    4.0675    0.8240   -1.0668 H   0  0  0  0  0  0
    3.8811   -2.2468   -0.9773 H   0  0  0  0  0  0
    4.0782   -1.3295   -2.4461 H   0  0  0  0  0  0
    6.1473    0.1673   -2.7408 H   0  0  0  0  0  0
    8.6035    0.1639   -2.4819 H   0  0  0  0  0  0
    8.2703   -2.8228    0.6195 H   0  0  0  0  0  0
    5.8098   -2.8173    0.3574 H   0  0  0  0  0  0
  1  2  1  0  0  0
  1 25  1  0  0  0
  1 26  1  0  0  0
  1 27  1  0  0  0
  2  3  1  0  0  0
  2 28  1  0  0  0
  2 29  1  0  0  0
  3  4  1  0  0  0
  4  5  2  0  0  0
  4  6  1  0  0  0
  6  7  1  0  0  0
  6 30  1  0  0  0
  6 31  1  0  0  0
  7 23  1  0  0  0
  7  8  1  0  0  0
  8  9  2  0  0  0
  8 10  1  0  0  0
 10 11  1  0  0  0
 11 12  1  0  0  0
 11 23  1  0  0  0
 11 32  1  0  0  0
 12 13  1  0  0  0
 12 33  1  0  0  0
 12 34  1  0  0  0
 13 22  1  0  0  0
 13 14  2  0  0  0
 14 15  1  0  0  0
 14 35  1  0  0  0
 15 16  2  0  0  0
 15 36  1  0  0  0
 16 17  1  0  0  0
 16 21  1  0  0  0
 17 18  1  0  0  0
 17 19  1  0  0  0
 17 20  1  0  0  0
 21 22  2  0  0  0
 21 37  1  0  0  0
 22 38  1  0  0  0
 23 24  2  0  0  0
M  END
$$$$
4
                    3D
 Schrodinger Suite 2021-2.
 50 52  0  0  1  0            999 V2000
   -0.0041    2.0526    0.9224 C   0  0  0  0  0  0
   -0.4255    1.2385   -0.1646 O   0  0  0  0  0  0
   -0.1511   -0.1498   -0.0013 C   0  0  0  0  0  0
    1.3092   -0.4873   -0.3577 C   0  0  0  0  0  0
    2.0410    0.4066   -0.7864 O   0  0  0  0  0  0
    1.7533   -1.7582   -0.1957 N   0  0  0  0  0  0
    0.9624   -2.8926    0.3025 C   0  0  0  0  0  0
    1.6979   -3.6591    1.4261 C   0  0  0  0  0  0
    2.3246   -2.7668    2.4098 N   0  0  0  0  0  0
    1.6946   -2.7712    3.7336 C   0  0  0  0  0  0
    3.4397   -2.0253    2.1813 C   0  0  0  0  0  0
    3.9727   -1.3810    3.0861 O   0  0  0  0  0  0
    4.0752   -1.9153    0.7656 C   0  0  1  0  0  0
    5.3621   -2.7631    0.6400 C   0  0  0  0  0  0
    6.5346   -2.2380    1.4520 C   0  0  0  0  0  0
    7.2324   -1.0903    1.0290 C   0  0  0  0  0  0
    8.3158   -0.6015    1.7837 C   0  0  0  0  0  0
    8.7236   -1.2457    2.9745 C   0  0  0  0  0  0
    9.8573   -0.7227    3.7421 C   0  0  0  0  0  0
   10.8457    0.1404    3.3349 C   0  0  0  0  0  0
   11.7893    0.4411    4.3610 C   0  0  0  0  0  0
   11.5114   -0.1929    5.5422 C   0  0  0  0  0  0
   10.0780   -1.1746    5.4196 S   0  0  0  0  0  0
    8.0186   -2.4020    3.3850 C   0  0  0  0  0  0
    6.9352   -2.8942    2.6325 C   0  0  0  0  0  0
    3.1469   -2.1310   -0.4615 C   0  0  0  0  0  0
   -0.2505    3.0932    0.7125 H   0  0  0  0  0  0
   -0.5150    1.7689    1.8432 H   0  0  0  0  0  0
    1.0709    1.9936    1.0921 H   0  0  0  0  0  0
   -0.3879   -0.4549    1.0190 H   0  0  0  0  0  0
   -0.8070   -0.7052   -0.6721 H   0  0  0  0  0  0
   -0.0091   -2.5910    0.6884 H   0  0  0  0  0  0
    0.7503   -3.5673   -0.5276 H   0  0  0  0  0  0
    1.0004   -4.3477    1.9043 H   0  0  0  0  0  0
    2.4685   -4.3090    1.0095 H   0  0  0  0  0  0
    1.6874   -1.7760    4.1817 H   0  0  0  0  0  0
    0.6546   -3.0963    3.6919 H   0  0  0  0  0  0
    2.2318   -3.4430    4.4038 H   0  0  0  0  0  0
    4.3742   -0.8685    0.6877 H   0  0  0  0  0  0
    5.1576   -3.7997    0.9118 H   0  0  0  0  0  0
    5.6815   -2.7899   -0.4027 H   0  0  0  0  0  0
    6.9361   -0.5783    0.1251 H   0  0  0  0  0  0
    8.8282    0.2841    1.4387 H   0  0  0  0  0  0
   10.9316    0.5636    2.3450 H   0  0  0  0  0  0
   12.6273    1.1028    4.1983 H   0  0  0  0  0  0
   12.0570   -0.1428    6.4727 H   0  0  0  0  0  0
    8.3010   -2.9333    4.2812 H   0  0  0  0  0  0
    6.4099   -3.7762    2.9688 H   0  0  0  0  0  0
    3.1946   -3.1676   -0.7992 H   0  0  0  0  0  0
    3.5350   -1.5666   -1.3115 H   0  0  0  0  0  0
  1  2  1  0  0  0
  1 27  1  0  0  0
  1 28  1  0  0  0
  1 29  1  0  0  0
  2  3  1  0  0  0
  3  4  1  0  0  0
  3 30  1  0  0  0
  3 31  1  0  0  0
  4  5  2  0  0  0
  4  6  1  0  0  0
  6 26  1  0  0  0
  6  7  1  0  0  0
  7  8  1  0  0  0
  7 32  1  0  0  0
  7 33  1  0  0  0
  8  9  1  0  0  0
  8 34  1  0  0  0
  8 35  1  0  0  0
  9 10  1  0  0  0
  9 11  1  0  0  0
 10 36  1  0  0  0
 10 37  1  0  0  0
 10 38  1  0  0  0
 11 12  2  0  0  0
 11 13  1  0  0  0
 13 14  1  0  0  0
 13 26  1  0  0  0
 13 39  1  0  0  0
 14 15  1  0  0  0
 14 40  1  0  0  0
 14 41  1  0  0  0
 15 25  1  0  0  0
 15 16  2  0  0  0
 16 17  1  0  0  0
 16 42  1  0  0  0
 17 18  2  0  0  0
 17 43  1  0  0  0
 18 19  1  0  0  0
 18 24  1  0  0  0
 19 23  1  0  0  0
 19 20  2  0  0  0
 20 21  1  0  0  0
 20 44  1  0  0  0
 21 22  2  0  0  0
 21 45  1  0  0  0
 22 23  1  0  0  0
 22 46  1  0  0  0
 24 25  2  0  0  0
 24 47  1  0  0  0
 25 48  1  0  0  0
 26 49  1  0  0  0
 26 50  1  0  0  0
M  END
$$$$
5
                    3D
 Schrodinger Suite 2021-2.
 45 46  0  0  1  0            999 V2000
   -1.3135   -2.8994   -1.7799 C   0  0  0  0  0  0
   -0.9270   -1.9462   -0.8059 O   0  0  0  0  0  0
   -0.5302   -0.7219   -1.1920 C   0  0  0  0  0  0
   -0.4626   -0.3272   -2.3572 O   0  0  0  0  0  0
   -0.0947    0.1538   -0.0073 C   0  0  1  0  0  0
    1.3082   -0.1165    0.3285 N   0  0  1  0  0  0
    1.7365   -0.8810    1.8163 S   0  0  0  0  0  0
    3.2054   -0.9078    1.8843 O   0  0  0  0  0  0
    0.9480   -0.2594    2.8919 O   0  0  0  0  0  0
    1.1702   -2.5568    1.5575 C   0  0  0  0  0  0
    1.7850   -3.3459    0.5682 C   0  0  0  0  0  0
    1.3223   -4.6552    0.3357 C   0  0  0  0  0  0
    0.2485   -5.1929    1.0839 C   0  0  0  0  0  0
   -0.2332   -6.5672    0.8368 C   0  0  0  0  0  0
   -0.6332   -7.3999    1.9080 C   0  0  0  0  0  0
   -1.0894   -8.7121    1.6758 C   0  0  0  0  0  0
   -1.1544   -9.2127    0.3630 C   0  0  0  0  0  0
   -1.5921  -10.4739    0.1373 F   0  0  0  0  0  0
   -0.7626   -8.3978   -0.7144 C   0  0  0  0  0  0
   -0.3059   -7.0866   -0.4770 C   0  0  0  0  0  0
   -0.3528   -4.3813    2.0749 C   0  0  0  0  0  0
    0.1005   -3.0698    2.3142 C   0  0  0  0  0  0
   -0.3010    1.6802   -0.2326 C   0  0  0  0  0  0
    0.1346    2.5043    0.9953 C   0  0  0  0  0  0
   -1.7606    2.0433   -0.5755 C   0  0  0  0  0  0
   -0.7131   -0.1362    0.8437 H   0  0  0  0  0  0
   -1.6189   -3.8244   -1.2911 H   0  0  0  0  0  0
   -2.1524   -2.5335   -2.3732 H   0  0  0  0  0  0
   -0.4831   -3.1274   -2.4490 H   0  0  0  0  0  0
    1.8861   -0.3923   -0.4650 H   0  0  0  0  0  0
    2.6022   -2.9491   -0.0158 H   0  0  0  0  0  0
    1.8058   -5.2501   -0.4250 H   0  0  0  0  0  0
   -0.5840   -7.0382    2.9245 H   0  0  0  0  0  0
   -1.3878   -9.3349    2.5062 H   0  0  0  0  0  0
   -0.8125   -8.7776   -1.7242 H   0  0  0  0  0  0
   -0.0161   -6.4753   -1.3191 H   0  0  0  0  0  0
   -1.1807   -4.7592    2.6565 H   0  0  0  0  0  0
   -0.3802   -2.4659    3.0691 H   0  0  0  0  0  0
    0.3231    1.9938   -1.0710 H   0  0  0  0  0  0
   -0.4276    2.2164    1.8841 H   0  0  0  0  0  0
    1.1941    2.3762    1.2173 H   0  0  0  0  0  0
   -0.0274    3.5700    0.8321 H   0  0  0  0  0  0
   -2.4429    1.7153    0.2093 H   0  0  0  0  0  0
   -1.8800    3.1215   -0.6856 H   0  0  0  0  0  0
   -2.0912    1.5953   -1.5119 H   0  0  0  0  0  0
  1  2  1  0  0  0
  1 27  1  0  0  0
  1 28  1  0  0  0
  1 29  1  0  0  0
  2  3  1  0  0  0
  3  4  2  0  0  0
  3  5  1  0  0  0
  5 26  1  0  0  0
  5  6  1  0  0  0
  5 23  1  0  0  0
  6  7  1  0  0  0
  6 30  1  0  0  0
  7  8  2  0  0  0
  7  9  2  0  0  0
  7 10  1  0  0  0
 10 22  1  0  0  0
 10 11  2  0  0  0
 11 12  1  0  0  0
 11 31  1  0  0  0
 12 13  2  0  0  0
 12 32  1  0  0  0
 13 14  1  0  0  0
 13 21  1  0  0  0
 14 20  1  0  0  0
 14 15  2  0  0  0
 15 16  1  0  0  0
 15 33  1  0  0  0
 16 17  2  0  0  0
 16 34  1  0  0  0
 17 18  1  0  0  0
 17 19  1  0  0  0
 19 20  2  0  0  0
 19 35  1  0  0  0
 20 36  1  0  0  0
 21 22  2  0  0  0
 21 37  1  0  0  0
 22 38  1  0  0  0
 23 24  1  0  0  0
 23 25  1  0  0  0
 23 39  1  0  0  0
 24 40  1  0  0  0
 24 41  1  0  0  0
 24 42  1  0  0  0
 25 43  1  0  0  0
 25 44  1  0  0  0
 25 45  1  0  0  0
M  END
$$$$
6
                    3D
 Schrodinger Suite 2021-2.
 56 59  0  0  1  0            999 V2000
   -1.9725    5.5654   -0.8338 C   0  0  0  0  0  0
   -1.4686    4.1688   -0.5348 C   0  0  0  0  0  0
   -1.8811    3.5065    0.6387 C   0  0  0  0  0  0
   -1.4111    2.2096    0.9217 C   0  0  0  0  0  0
   -0.5186    1.5653    0.0391 C   0  0  0  0  0  0
   -0.0250    0.1585    0.3507 C   0  0  0  0  0  0
    1.4341    0.0397    0.2810 N   0  0  0  0  0  0
    2.3925    0.3702    1.2645 C   0  0  0  0  0  0
    2.0273    0.9192    2.6083 C   0  0  0  0  0  0
    2.9365    1.0629    3.4546 O   0  0  0  0  0  0
    0.8487    1.2225    2.8852 O   0  5  0  0  0  0
    3.6519    0.0944    0.7693 C   0  0  0  0  0  0
    4.9727    0.2954    1.4557 C   0  0  0  0  0  0
    5.1796   -0.7509    2.4765 N   0  3  0  0  0  0
    6.4473   -0.6430    3.2276 C   0  0  0  0  0  0
    6.6789   -1.8446    4.1434 C   0  0  0  0  0  0
    7.7105   -1.3537    5.1640 C   0  0  0  0  0  0
    7.5428    0.1726    5.2392 C   0  0  0  0  0  0
    6.4797    0.5422    4.1973 C   0  0  0  0  0  0
    3.4814   -0.4322   -0.5498 C   0  0  0  0  0  0
    4.3709   -0.8955   -1.5493 C   0  0  0  0  0  0
    3.8989   -1.3676   -2.7887 C   0  0  0  0  0  0
    2.5181   -1.3867   -3.0595 C   0  0  0  0  0  0
    2.0169   -1.8941   -4.3959 C   0  0  0  0  0  0
    1.6128   -0.9300   -2.0827 C   0  0  0  0  0  0
    2.0906   -0.4591   -0.8407 C   0  0  0  0  0  0
   -0.1125    2.2294   -1.1391 C   0  0  0  0  0  0
   -0.5824    3.5262   -1.4232 C   0  0  0  0  0  0
    4.4121   -0.7064    3.1330 H   0  0  0  0  0  0
    5.1565   -1.6472    2.0126 H   0  0  0  0  0  0
   -3.0084    5.6777   -0.5124 H   0  0  0  0  0  0
   -1.3673    6.3034   -0.3071 H   0  0  0  0  0  0
   -1.9250    5.7800   -1.9018 H   0  0  0  0  0  0
   -2.5587    3.9909    1.3265 H   0  0  0  0  0  0
   -1.7343    1.7130    1.8248 H   0  0  0  0  0  0
   -0.3794   -0.1890    1.3203 H   0  0  0  0  0  0
   -0.4796   -0.5253   -0.3648 H   0  0  0  0  0  0
    5.7909    0.2536    0.7364 H   0  0  0  0  0  0
    5.0202    1.2844    1.9114 H   0  0  0  0  0  0
    7.2810   -0.5683    2.5273 H   0  0  0  0  0  0
    5.7542   -2.1040    4.6615 H   0  0  0  0  0  0
    7.0148   -2.7297    3.6020 H   0  0  0  0  0  0
    7.5744   -1.8305    6.1353 H   0  0  0  0  0  0
    8.7175   -1.5943    4.8207 H   0  0  0  0  0  0
    7.2441    0.4986    6.2360 H   0  0  0  0  0  0
    8.4895    0.6614    5.0068 H   0  0  0  0  0  0
    6.6980    1.4877    3.7002 H   0  0  0  0  0  0
    5.5126    0.6454    4.6918 H   0  0  0  0  0  0
    5.4343   -0.8867   -1.3622 H   0  0  0  0  0  0
    4.6010   -1.7139   -3.5330 H   0  0  0  0  0  0
    0.9275   -1.9333   -4.4239 H   0  0  0  0  0  0
    2.3557   -1.2394   -5.1992 H   0  0  0  0  0  0
    2.3971   -2.8980   -4.5865 H   0  0  0  0  0  0
    0.5535   -0.9376   -2.2910 H   0  0  0  0  0  0
    0.5628    1.7501   -1.8316 H   0  0  0  0  0  0
   -0.2596    4.0251   -2.3252 H   0  0  0  0  0  0
  1  2  1  0  0  0
  1 31  1  0  0  0
  1 32  1  0  0  0
  1 33  1  0  0  0
  2 28  1  0  0  0
  2  3  2  0  0  0
  3  4  1  0  0  0
  3 34  1  0  0  0
  4  5  2  0  0  0
  4 35  1  0  0  0
  5  6  1  0  0  0
  5 27  1  0  0  0
  6  7  1  0  0  0
  6 36  1  0  0  0
  6 37  1  0  0  0
  7 26  1  0  0  0
  7  8  1  0  0  0
  8  9  1  0  0  0
  8 12  2  0  0  0
  9 10  2  0  0  0
  9 11  1  0  0  0
 12 13  1  0  0  0
 12 20  1  0  0  0
 13 14  1  0  0  0
 13 38  1  0  0  0
 13 39  1  0  0  0
 14 29  1  0  0  0
 14 30  1  0  0  0
 14 15  1  0  0  0
 15 19  1  0  0  0
 15 16  1  0  0  0
 15 40  1  0  0  0
 16 17  1  0  0  0
 16 41  1  0  0  0
 16 42  1  0  0  0
 17 18  1  0  0  0
 17 43  1  0  0  0
 17 44  1  0  0  0
 18 19  1  0  0  0
 18 45  1  0  0  0
 18 46  1  0  0  0
 19 47  1  0  0  0
 19 48  1  0  0  0
 20 26  2  0  0  0
 20 21  1  0  0  0
 21 22  2  0  0  0
 21 49  1  0  0  0
 22 23  1  0  0  0
 22 50  1  0  0  0
 23 24  1  0  0  0
 23 25  2  0  0  0
 24 51  1  0  0  0
 24 52  1  0  0  0
 24 53  1  0  0  0
 25 26  1  0  0  0
 25 54  1  0  0  0
 27 28  2  0  0  0
 27 55  1  0  0  0
 28 56  1  0  0  0
M  CHG  2  11  -1  14   1
M  END
$$$$
7
                    3D
 Schrodinger Suite 2021-2.
 61 64  0  0  1  0            999 V2000
   -2.8545   -2.3124    0.0361 C   0  0  0  0  0  0
   -2.1190   -0.9965   -0.1576 C   0  0  0  0  0  0
   -0.7283   -1.0159   -0.3964 C   0  0  0  0  0  0
    0.0037    0.1824   -0.5719 C   0  0  0  0  0  0
    1.3966    0.1617   -0.7979 N   0  0  0  0  0  0
    2.2236    1.3219   -0.4868 C   0  0  0  0  0  0
    3.5961    0.7615   -0.0991 C   0  0  0  0  0  0
    3.6315   -0.6120   -0.7764 C   0  0  1  0  0  0
    4.5949   -1.5628   -0.1635 N   0  3  1  0  0  0
    4.5041   -2.9409   -0.6966 C   0  0  0  0  0  0
    5.8860   -3.5484   -0.4918 C   0  0  0  0  0  0
    6.8057   -2.3633   -0.7526 C   0  0  0  0  0  0
    6.0220   -1.1468   -0.2316 C   0  0  2  0  0  0
    6.5190   -0.6913    1.1492 C   0  0  0  0  0  0
    2.1721   -1.0586   -0.6437 C   0  0  0  0  0  0
   -0.6993    1.4078   -0.5209 C   0  0  0  0  0  0
   -2.0850    1.4374   -0.2821 C   0  0  0  0  0  0
   -2.8111    0.2368   -0.1061 C   0  0  0  0  0  0
   -4.2063    0.2239    0.1769 N   0  0  0  0  0  0
   -5.1436    1.1275   -0.1657 C   0  0  0  0  0  0
   -4.9243    2.1178   -0.8626 O   0  0  0  0  0  0
   -6.5664    0.8344    0.3471 C   0  0  0  0  0  0
   -7.6124    0.7471   -0.7842 C   0  0  0  0  0  0
   -8.0682    2.1311   -1.2856 C   0  0  0  0  0  0
   -8.5251    2.9211   -0.1938 O   0  0  0  0  0  0
   -7.5072    3.1822    0.7655 C   0  0  0  0  0  0
   -7.0351    1.8606    1.3989 C   0  0  0  0  0  0
    3.8688   -0.4823   -1.8344 H   0  0  0  0  0  0
    4.3686   -1.6259    0.8190 H   0  0  0  0  0  0
    6.1493   -0.3251   -0.9384 H   0  0  0  0  0  0
   -2.1849   -3.1656   -0.0751 H   0  0  0  0  0  0
   -3.2955   -2.3594    1.0321 H   0  0  0  0  0  0
   -3.6518   -2.4155   -0.7006 H   0  0  0  0  0  0
   -0.2300   -1.9727   -0.4373 H   0  0  0  0  0  0
    2.2989    1.9485   -1.3761 H   0  0  0  0  0  0
    1.8128    1.9244    0.3241 H   0  0  0  0  0  0
    4.4158    1.4140   -0.4012 H   0  0  0  0  0  0
    3.6399    0.6452    0.9849 H   0  0  0  0  0  0
    3.7195   -3.5139   -0.2016 H   0  0  0  0  0  0
    4.2783   -2.9113   -1.7640 H   0  0  0  0  0  0
    5.9972   -3.8892    0.5388 H   0  0  0  0  0  0
    6.0820   -4.3933   -1.1525 H   0  0  0  0  0  0
    7.7848   -2.4822   -0.2873 H   0  0  0  0  0  0
    6.9655   -2.2618   -1.8271 H   0  0  0  0  0  0
    7.5704   -0.4054    1.1106 H   0  0  0  0  0  0
    5.9614    0.1729    1.5095 H   0  0  0  0  0  0
    6.4178   -1.4853    1.8901 H   0  0  0  0  0  0
    1.9833   -1.4858    0.3425 H   0  0  0  0  0  0
    1.9076   -1.7973   -1.4012 H   0  0  0  0  0  0
   -0.1869    2.3480   -0.6607 H   0  0  0  0  0  0
   -2.5688    2.4001   -0.2214 H   0  0  0  0  0  0
   -4.5429   -0.6005    0.6526 H   0  0  0  0  0  0
   -6.5331   -0.1420    0.8340 H   0  0  0  0  0  0
   -7.2277    0.1582   -1.6181 H   0  0  0  0  0  0
   -8.4842    0.2067   -0.4132 H   0  0  0  0  0  0
   -7.2713    2.6511   -1.8175 H   0  0  0  0  0  0
   -8.8871    2.0144   -1.9955 H   0  0  0  0  0  0
   -6.6819    3.7246    0.3031 H   0  0  0  0  0  0
   -7.9155    3.8355    1.5369 H   0  0  0  0  0  0
   -7.8604    1.4309    1.9680 H   0  0  0  0  0  0
   -6.2429    2.0576    2.1226 H   0  0  0  0  0  0
  1  2  1  0  0  0
  1 31  1  0  0  0
  1 32  1  0  0  0
  1 33  1  0  0  0
  2 18  1  0  0  0
  2  3  2  0  0  0
  3  4  1  0  0  0
  3 34  1  0  0  0
  4  5  1  0  0  0
  4 16  2  0  0  0
  5 15  1  0  0  0
  5  6  1  0  0  0
  6  7  1  0  0  0
  6 35  1  0  0  0
  6 36  1  0  0  0
  7  8  1  0  0  0
  7 37  1  0  0  0
  7 38  1  0  0  0
  8 28  1  0  0  0
  8  9  1  0  0  0
  8 15  1  0  0  0
  9 29  1  0  0  0
  9 13  1  0  0  0
  9 10  1  0  0  0
 10 11  1  0  0  0
 10 39  1  0  0  0
 10 40  1  0  0  0
 11 12  1  0  0  0
 11 41  1  0  0  0
 11 42  1  0  0  0
 12 13  1  0  0  0
 12 43  1  0  0  0
 12 44  1  0  0  0
 13 30  1  0  0  0
 13 14  1  0  0  0
 14 45  1  0  0  0
 14 46  1  0  0  0
 14 47  1  0  0  0
 15 48  1  0  0  0
 15 49  1  0  0  0
 16 17  1  0  0  0
 16 50  1  0  0  0
 17 18  2  0  0  0
 17 51  1  0  0  0
 18 19  1  0  0  0
 19 20  1  0  0  0
 19 52  1  0  0  0
 20 21  2  0  0  0
 20 22  1  0  0  0
 22 27  1  0  0  0
 22 23  1  0  0  0
 22 53  1  0  0  0
 23 24  1  0  0  0
 23 54  1  0  0  0
 23 55  1  0  0  0
 24 25  1  0  0  0
 24 56  1  0  0  0
 24 57  1  0  0  0
 25 26  1  0  0  0
 26 27  1  0  0  0
 26 58  1  0  0  0
 26 59  1  0  0  0
 27 60  1  0  0  0
 27 61  1  0  0  0
M  CHG  1   9   1
M  END
$$$$
8
                    3D
 Schrodinger Suite 2021-2.
 37 39  0  0  1  0            999 V2000
   -0.0944    2.4629   -0.7695 O   0  0  0  0  0  0
   -0.6730    1.4826   -0.2963 C   0  0  0  0  0  0
   -0.0248    0.3862    0.1728 O   0  0  0  0  0  0
    1.3439    0.3085    0.0971 C   0  0  0  0  0  0
    2.1123    0.4091    1.2747 C   0  0  0  0  0  0
    3.5155    0.3056    1.2161 C   0  0  0  0  0  0
    4.1594    0.0896   -0.0199 C   0  0  0  0  0  0
    5.6725   -0.0099   -0.0812 C   0  0  0  0  0  0
    6.3920    1.3484    0.0107 C   0  0  2  0  0  0
    6.1384    2.1644   -1.1670 N   0  0  0  0  0  0
    7.2532    2.5162   -1.8443 C   0  0  0  0  0  0
    7.3364    3.4502   -3.2130 S   0  0  0  0  0  0
    8.2801    1.9447   -1.1838 N   0  0  0  0  0  0
    7.9026    1.2459   -0.1151 C   0  0  0  0  0  0
    8.6302    0.6249    0.6571 O   0  0  0  0  0  0
    3.3909   -0.0275   -1.1967 C   0  0  0  0  0  0
    1.9877    0.0750   -1.1378 C   0  0  0  0  0  0
   -2.1605    1.3601   -0.1685 C   0  0  0  0  0  0
   -2.6983    0.4918    0.8157 C   0  0  0  0  0  0
   -4.0885    0.3512    0.9808 C   0  0  0  0  0  0
   -4.9698    1.0770    0.1628 C   0  0  0  0  0  0
   -4.4562    1.9408   -0.8199 C   0  0  0  0  0  0
   -3.0647    2.0890   -0.9941 C   0  0  0  0  0  0
   -2.5413    3.1541   -2.2557 Cl  0  0  0  0  0  0
    1.6253    0.5714    2.2251 H   0  0  0  0  0  0
    4.0970    0.3935    2.1222 H   0  0  0  0  0  0
    5.9972   -0.6495    0.7407 H   0  0  0  0  0  0
    5.9623   -0.5313   -0.9954 H   0  0  0  0  0  0
    6.1245    1.8915    0.9180 H   0  0  0  0  0  0
    5.2141    2.4608   -1.4465 H   0  0  0  0  0  0
    9.2376    2.0451   -1.4879 H   0  0  0  0  0  0
    3.8742   -0.1946   -2.1482 H   0  0  0  0  0  0
    1.4052   -0.0203   -2.0426 H   0  0  0  0  0  0
   -2.0534   -0.0748    1.4717 H   0  0  0  0  0  0
   -4.4776   -0.3131    1.7382 H   0  0  0  0  0  0
   -6.0375    0.9706    0.2868 H   0  0  0  0  0  0
   -5.1382    2.4919   -1.4506 H   0  0  0  0  0  0
  1  2  2  0  0  0
  2  3  1  0  0  0
  2 18  1  0  0  0
  3  4  1  0  0  0
  4 17  1  0  0  0
  4  5  2  0  0  0
  5  6  1  0  0  0
  5 25  1  0  0  0
  6  7  2  0  0  0
  6 26  1  0  0  0
  7  8  1  0  0  0
  7 16  1  0  0  0
  8  9  1  0  0  0
  8 27  1  0  0  0
  8 28  1  0  0  0
  9 14  1  0  0  0
  9 10  1  0  0  0
  9 29  1  0  0  0
 10 11  1  0  0  0
 10 30  1  0  0  0
 11 12  2  0  0  0
 11 13  1  0  0  0
 13 14  1  0  0  0
 13 31  1  0  0  0
 14 15  2  0  0  0
 16 17  2  0  0  0
 16 32  1  0  0  0
 17 33  1  0  0  0
 18 23  1  0  0  0
 18 19  2  0  0  0
 19 20  1  0  0  0
 19 34  1  0  0  0
 20 21  2  0  0  0
 20 35  1  0  0  0
 21 22  1  0  0  0
 21 36  1  0  0  0
 22 23  2  0  0  0
 22 37  1  0  0  0
 23 24  1  0  0  0
M  END
$$$$
9
                    3D
 Schrodinger Suite 2021-2.
 49 51  0  0  1  0            999 V2000
   -3.0471    3.1611   -0.0898 C   0  0  0  0  0  0
   -3.2909    1.6902    0.3295 C   0  0  0  0  0  0
   -2.1177    0.8403   -0.2621 C   0  0  2  0  0  0
   -2.1599   -0.6868   -0.0581 C   0  0  0  0  0  0
   -0.6900   -1.0711   -0.1049 C   0  0  0  0  0  0
   -0.3066   -2.2353   -0.2078 O   0  0  0  0  0  0
    0.0878    0.0159   -0.0247 N   0  0  0  0  0  0
    1.5482    0.0508   -0.0520 C   0  0  0  0  0  0
    2.0865    0.0799   -1.4908 C   0  0  0  0  0  0
    1.8265   -1.1682   -2.1185 O   0  0  0  0  0  0
    2.1366   -1.3082   -3.4534 C   0  0  0  0  0  0
    1.7589   -2.5178   -4.0719 C   0  0  0  0  0  0
    2.0312   -2.7464   -5.4342 C   0  0  0  0  0  0
    2.6907   -1.7627   -6.1939 C   0  0  0  0  0  0
    2.9522   -1.9819   -7.5046 F   0  0  0  0  0  0
    3.0781   -0.5521   -5.5884 C   0  0  0  0  0  0
    3.7158    0.3956   -6.3162 F   0  0  0  0  0  0
    2.8038   -0.3235   -4.2254 C   0  0  0  0  0  0
   -0.6826    1.2359    0.1451 C   0  0  0  0  0  0
   -3.3492    1.5854    1.8838 C   0  0  0  0  0  0
   -4.5050    2.3455    2.5568 C   0  0  0  0  0  0
   -6.1306    1.7399    1.9535 S   0  0  0  0  0  0
   -6.2300    0.3088    2.2788 O   0  0  0  0  0  0
   -7.1822    2.6729    2.3849 O   0  0  0  0  0  0
   -5.8999    1.8932    0.1384 C   0  0  0  0  0  0
   -4.6143    1.1794   -0.3115 C   0  0  0  0  0  0
   -2.1560    0.9794   -1.3450 H   0  0  0  0  0  0
   -2.1315    3.5568    0.3499 H   0  0  0  0  0  0
   -2.9543    3.2540   -1.1723 H   0  0  0  0  0  0
   -3.8505    3.8282    0.2171 H   0  0  0  0  0  0
   -2.5621   -0.9848    0.9082 H   0  0  0  0  0  0
   -2.7275   -1.1925   -0.8400 H   0  0  0  0  0  0
    1.8870    0.9404    0.4804 H   0  0  0  0  0  0
    1.9575   -0.8036    0.4897 H   0  0  0  0  0  0
    1.6192    0.8979   -2.0419 H   0  0  0  0  0  0
    3.1623    0.2598   -1.4700 H   0  0  0  0  0  0
    1.2515   -3.2772   -3.4952 H   0  0  0  0  0  0
    1.7332   -3.6766   -5.8953 H   0  0  0  0  0  0
    3.1177    0.6148   -3.7939 H   0  0  0  0  0  0
   -0.2926    2.0418   -0.4781 H   0  0  0  0  0  0
   -0.6045    1.5459    1.1859 H   0  0  0  0  0  0
   -3.4267    0.5428    2.1872 H   0  0  0  0  0  0
   -2.4218    1.9506    2.3217 H   0  0  0  0  0  0
   -4.4766    2.2056    3.6374 H   0  0  0  0  0  0
   -4.4448    3.4174    2.3727 H   0  0  0  0  0  0
   -6.7710    1.4539   -0.3476 H   0  0  0  0  0  0
   -5.8894    2.9506   -0.1223 H   0  0  0  0  0  0
   -4.5449    1.2515   -1.3976 H   0  0  0  0  0  0
   -4.7376    0.1176   -0.0968 H   0  0  0  0  0  0
  1  2  1  0  0  0
  1 28  1  0  0  0
  1 29  1  0  0  0
  1 30  1  0  0  0
  2 26  1  0  0  0
  2  3  1  0  0  0
  2 20  1  0  0  0
  3 27  1  0  0  0
  3 19  1  0  0  0
  3  4  1  0  0  0
  4  5  1  0  0  0
  4 31  1  0  0  0
  4 32  1  0  0  0
  5  6  2  0  0  0
  5  7  1  0  0  0
  7  8  1  0  0  0
  7 19  1  0  0  0
  8  9  1  0  0  0
  8 33  1  0  0  0
  8 34  1  0  0  0
  9 10  1  0  0  0
  9 35  1  0  0  0
  9 36  1  0  0  0
 10 11  1  0  0  0
 11 18  1  0  0  0
 11 12  2  0  0  0
 12 13  1  0  0  0
 12 37  1  0  0  0
 13 14  2  0  0  0
 13 38  1  0  0  0
 14 15  1  0  0  0
 14 16  1  0  0  0
 16 17  1  0  0  0
 16 18  2  0  0  0
 18 39  1  0  0  0
 19 40  1  0  0  0
 19 41  1  0  0  0
 20 21  1  0  0  0
 20 42  1  0  0  0
 20 43  1  0  0  0
 21 22  1  0  0  0
 21 44  1  0  0  0
 21 45  1  0  0  0
 22 23  2  0  0  0
 22 24  2  0  0  0
 22 25  1  0  0  0
 25 26  1  0  0  0
 25 46  1  0  0  0
 25 47  1  0  0  0
 26 48  1  0  0  0
 26 49  1  0  0  0
M  END
$$$$
10
                    3D
 Schrodinger Suite 2021-2.
 66 68  0  0  1  0            999 V2000
    0.4756   -2.5236   -0.7981 C   0  0  0  0  0  0
   -0.4232   -1.3615   -0.4083 C   0  0  0  0  0  0
   -1.8193   -1.5558   -0.3850 C   0  0  0  0  0  0
   -2.6964   -0.5060   -0.0252 C   0  0  0  0  0  0
   -4.0968   -0.6750    0.0052 N   0  0  0  0  0  0
   -4.7298   -0.4144    1.2945 C   0  0  0  0  0  0
   -6.2407   -0.1847    1.1283 C   0  0  0  0  0  0
   -6.9366   -1.3532    0.3860 C   0  0  0  0  0  0
   -8.4012   -1.0829    0.2089 N   0  3  0  0  0  0
   -9.0771   -1.9280   -0.8146 C   0  0  0  0  0  0
  -10.5686   -1.5711   -0.9385 C   0  0  0  0  0  0
  -11.2033   -1.7002    0.3242 O   0  0  0  0  0  0
  -10.6435   -0.8104    1.2778 C   0  0  0  0  0  0
   -9.1590   -1.1504    1.4889 C   0  0  0  0  0  0
   -6.1838   -1.5876   -0.9500 C   0  0  0  0  0  0
   -4.6739   -1.7878   -0.7415 C   0  0  0  0  0  0
   -2.1401    0.7457    0.3179 C   0  0  0  0  0  0
   -0.7467    0.9598    0.3039 C   0  0  0  0  0  0
   -0.2230    2.3219    0.7324 C   0  0  0  0  0  0
    0.1201   -0.0946   -0.0862 C   0  0  0  0  0  0
    1.5303    0.0679   -0.1062 N   0  0  0  0  0  0
    2.2144    0.8575   -0.9518 C   0  0  0  0  0  0
    1.6781    1.6083   -1.7667 O   0  0  0  0  0  0
    3.7449    0.8122   -0.8317 C   0  0  0  0  0  0
    4.5058    0.1575   -2.0205 C   0  0  0  0  0  0
    4.0478   -1.3000   -2.2384 C   0  0  0  0  0  0
    6.0081    0.1495   -1.6759 C   0  0  0  0  0  0
    4.3160    0.9508   -3.3310 C   0  0  0  0  0  0
   -8.4756   -0.1325   -0.1251 H   0  0  0  0  0  0
   -0.0884   -3.4526   -0.8857 H   0  0  0  0  0  0
    0.9496   -2.3265   -1.7594 H   0  0  0  0  0  0
    1.2553   -2.6780   -0.0516 H   0  0  0  0  0  0
   -2.2055   -2.5315   -0.6385 H   0  0  0  0  0  0
   -4.5537   -1.2697    1.9482 H   0  0  0  0  0  0
   -4.2895    0.4503    1.7902 H   0  0  0  0  0  0
   -6.6602   -0.0353    2.1213 H   0  0  0  0  0  0
   -6.4045    0.7450    0.5816 H   0  0  0  0  0  0
   -6.8330   -2.2607    0.9834 H   0  0  0  0  0  0
   -8.6287   -1.7831   -1.7967 H   0  0  0  0  0  0
   -8.9633   -2.9812   -0.5531 H   0  0  0  0  0  0
  -10.6959   -0.5574   -1.3222 H   0  0  0  0  0  0
  -11.0561   -2.2408   -1.6472 H   0  0  0  0  0  0
  -10.7661    0.2235    0.9512 H   0  0  0  0  0  0
  -11.1885   -0.9137    2.2163 H   0  0  0  0  0  0
   -9.0670   -2.1508    1.9149 H   0  0  0  0  0  0
   -8.7563   -0.4555    2.2228 H   0  0  0  0  0  0
   -6.5579   -2.4748   -1.4601 H   0  0  0  0  0  0
   -6.3464   -0.7427   -1.6207 H   0  0  0  0  0  0
   -4.1873   -1.8794   -1.7136 H   0  0  0  0  0  0
   -4.4943   -2.7170   -0.1988 H   0  0  0  0  0  0
   -2.7908    1.5626    0.5944 H   0  0  0  0  0  0
    0.6996    2.2309    1.3057 H   0  0  0  0  0  0
   -0.0311    2.9473   -0.1393 H   0  0  0  0  0  0
   -0.9477    2.8382    1.3624 H   0  0  0  0  0  0
    2.0669   -0.5793    0.4529 H   0  0  0  0  0  0
    4.0915    1.8381   -0.6981 H   0  0  0  0  0  0
    4.0054    0.2955    0.0939 H   0  0  0  0  0  0
    3.0092   -1.3526   -2.5652 H   0  0  0  0  0  0
    4.6482   -1.7931   -3.0038 H   0  0  0  0  0  0
    4.1369   -1.8865   -1.3232 H   0  0  0  0  0  0
    6.3848    1.1609   -1.5176 H   0  0  0  0  0  0
    6.2059   -0.4205   -0.7673 H   0  0  0  0  0  0
    6.5997   -0.2977   -2.4758 H   0  0  0  0  0  0
    4.5778    2.0014   -3.2005 H   0  0  0  0  0  0
    4.9465    0.5531   -4.1269 H   0  0  0  0  0  0
    3.2888    0.9076   -3.6927 H   0  0  0  0  0  0
  1  2  1  0  0  0
  1 30  1  0  0  0
  1 31  1  0  0  0
  1 32  1  0  0  0
  2 20  1  0  0  0
  2  3  2  0  0  0
  3  4  1  0  0  0
  3 33  1  0  0  0
  4  5  1  0  0  0
  4 17  2  0  0  0
  5 16  1  0  0  0
  5  6  1  0  0  0
  6  7  1  0  0  0
  6 34  1  0  0  0
  6 35  1  0  0  0
  7  8  1  0  0  0
  7 36  1  0  0  0
  7 37  1  0  0  0
  8  9  1  0  0  0
  8 15  1  0  0  0
  8 38  1  0  0  0
  9 29  1  0  0  0
  9 14  1  0  0  0
  9 10  1  0  0  0
 10 11  1  0  0  0
 10 39  1  0  0  0
 10 40  1  0  0  0
 11 12  1  0  0  0
 11 41  1  0  0  0
 11 42  1  0  0  0
 12 13  1  0  0  0
 13 14  1  0  0  0
 13 43  1  0  0  0
 13 44  1  0  0  0
 14 45  1  0  0  0
 14 46  1  0  0  0
 15 16  1  0  0  0
 15 47  1  0  0  0
 15 48  1  0  0  0
 16 49  1  0  0  0
 16 50  1  0  0  0
 17 18  1  0  0  0
 17 51  1  0  0  0
 18 19  1  0  0  0
 18 20  2  0  0  0
 19 52  1  0  0  0
 19 53  1  0  0  0
 19 54  1  0  0  0
 20 21  1  0  0  0
 21 22  1  0  0  0
 21 55  1  0  0  0
 22 23  2  0  0  0
 22 24  1  0  0  0
 24 25  1  0  0  0
 24 56  1  0  0  0
 24 57  1  0  0  0
 25 26  1  0  0  0
 25 27  1  0  0  0
 25 28  1  0  0  0
 26 58  1  0  0  0
 26 59  1  0  0  0
 26 60  1  0  0  0
 27 61  1  0  0  0
 27 62  1  0  0  0
 27 63  1  0  0  0
 28 64  1  0  0  0
 28 65  1  0  0  0
 28 66  1  0  0  0
M  CHG  1   9   1
M  END
$$$$
11
                    3D
 Schrodinger Suite 2021-2.
 50 53  0  0  1  0            999 V2000
   -0.0274    0.2903    0.3688 O   0  0  0  0  0  0
    0.5189   -0.7947    0.5730 C   0  0  0  0  0  0
    2.0500   -0.8864    0.4488 C   0  0  0  0  0  0
    2.8790    0.6527   -0.0568 S   0  0  0  0  0  0
    2.8204    1.5871    1.4976 C   0  0  0  0  0  0
    3.4338    2.9621    1.3415 C   0  0  0  0  0  0
    3.0674    4.0791    2.2913 C   0  0  0  0  0  0
    2.6033    4.1276    0.8561 C   0  0  0  0  0  0
   -0.1884   -1.9126    0.8835 N   0  0  0  0  0  0
   -1.6668   -1.9192    0.9271 C   0  0  0  0  0  0
   -2.3150   -2.8911   -0.1079 C   0  0  2  0  0  0
   -2.4929   -4.3137    0.4808 C   0  0  0  0  0  0
   -1.1830   -5.1344    0.4885 C   0  0  0  0  0  0
    0.0270   -4.2890    0.0268 C   0  0  2  0  0  0
    0.3977   -3.2450    1.1249 C   0  0  0  0  0  0
   -0.3118   -3.6640   -1.2721 N   0  0  0  0  0  0
    0.6403   -3.8092   -2.3768 C   0  0  0  0  0  0
    0.2164   -4.8581   -3.3920 C   0  0  0  0  0  0
    0.0718   -6.2112   -3.0156 C   0  0  0  0  0  0
   -0.3391   -7.1398   -3.9913 C   0  0  0  0  0  0
   -0.5875   -6.6833   -5.2998 C   0  0  0  0  0  0
   -0.4118   -5.3128   -5.5757 C   0  0  0  0  0  0
   -0.0178   -4.4145   -4.6475 N   0  0  0  0  0  0
   -1.4791   -2.9882   -1.4001 C   0  0  0  0  0  0
   -1.8658   -2.4559   -2.4399 O   0  0  0  0  0  0
   -3.3056   -2.5079   -0.3567 H   0  0  0  0  0  0
    0.8687   -4.9728   -0.0919 H   0  0  0  0  0  0
    2.4827   -1.2096    1.3957 H   0  0  0  0  0  0
    2.2906   -1.6420   -0.2998 H   0  0  0  0  0  0
    1.7877    1.6825    1.8332 H   0  0  0  0  0  0
    3.3647    1.0397    2.2672 H   0  0  0  0  0  0
    4.4711    2.9447    1.0122 H   0  0  0  0  0  0
    2.3185    3.8736    3.0537 H   0  0  0  0  0  0
    3.8576    4.7660    2.5876 H   0  0  0  0  0  0
    3.0847    4.8449    0.1947 H   0  0  0  0  0  0
    1.5471    3.9506    0.6623 H   0  0  0  0  0  0
   -1.9774   -2.1786    1.9398 H   0  0  0  0  0  0
   -2.0844   -0.9256    0.7607 H   0  0  0  0  0  0
   -2.8971   -4.2534    1.4918 H   0  0  0  0  0  0
   -3.2444   -4.8518   -0.0986 H   0  0  0  0  0  0
   -1.0056   -5.5638    1.4751 H   0  0  0  0  0  0
   -1.2984   -5.9845   -0.1851 H   0  0  0  0  0  0
    1.4821   -3.2140    1.2032 H   0  0  0  0  0  0
    0.0767   -3.5903    2.1085 H   0  0  0  0  0  0
    0.7746   -2.8431   -2.8677 H   0  0  0  0  0  0
    1.6267   -4.0760   -1.9962 H   0  0  0  0  0  0
    0.2702   -6.5319   -2.0040 H   0  0  0  0  0  0
   -0.4620   -8.1830   -3.7404 H   0  0  0  0  0  0
   -0.9051   -7.3664   -6.0736 H   0  0  0  0  0  0
   -0.5928   -4.9277   -6.5685 H   0  0  0  0  0  0
  1  2  2  0  0  0
  2  3  1  0  0  0
  2  9  1  0  0  0
  3  4  1  0  0  0
  3 28  1  0  0  0
  3 29  1  0  0  0
  4  5  1  0  0  0
  5  6  1  0  0  0
  5 30  1  0  0  0
  5 31  1  0  0  0
  6  8  1  0  0  0
  6  7  1  0  0  0
  6 32  1  0  0  0
  7  8  1  0  0  0
  7 33  1  0  0  0
  7 34  1  0  0  0
  8 35  1  0  0  0
  8 36  1  0  0  0
  9 15  1  0  0  0
  9 10  1  0  0  0
 10 11  1  0  0  0
 10 37  1  0  0  0
 10 38  1  0  0  0
 11 26  1  0  0  0
 11 24  1  0  0  0
 11 12  1  0  0  0
 12 13  1  0  0  0
 12 39  1  0  0  0
 12 40  1  0  0  0
 13 14  1  0  0  0
 13 41  1  0  0  0
 13 42  1  0  0  0
 14 27  1  0  0  0
 14 15  1  0  0  0
 14 16  1  0  0  0
 15 43  1  0  0  0
 15 44  1  0  0  0
 16 17  1  0  0  0
 16 24  1  0  0  0
 17 18  1  0  0  0
 17 45  1  0  0  0
 17 46  1  0  0  0
 18 23  1  0  0  0
 18 19  2  0  0  0
 19 20  1  0  0  0
 19 47  1  0  0  0
 20 21  2  0  0  0
 20 48  1  0  0  0
 21 22  1  0  0  0
 21 49  1  0  0  0
 22 23  2  0  0  0
 22 50  1  0  0  0
 24 25  2  0  0  0
M  END
$$$$
12
                    3D
 Schrodinger Suite 2021-2.
 51 54  0  0  1  0            999 V2000
   -2.0885    1.2907    0.0475 C   0  0  0  0  0  0
   -0.5531    1.3425    0.0273 C   0  0  2  0  0  0
    0.0618   -0.0678   -0.0683 C   0  0  0  0  0  0
    1.5815   -0.0701   -0.0343 C   0  0  0  0  0  0
    2.2690   -0.4269    1.1452 C   0  0  0  0  0  0
    3.6772   -0.4231    1.1727 C   0  0  0  0  0  0
    4.4055   -0.0641    0.0201 C   0  0  0  0  0  0
    5.8583   -0.0628    0.0473 C   0  0  0  0  0  0
    7.0794   -0.0669    0.0585 C   0  0  0  0  0  0
    8.5319   -0.0694    0.0562 C   0  0  0  0  0  0
    9.2735    0.3140   -1.0803 C   0  0  0  0  0  0
   10.6248    0.3110   -1.0786 N   0  0  0  0  0  0
   11.2303   -0.0715    0.0489 C   0  0  0  0  0  0
   12.6121   -0.0606    0.0153 N   0  0  0  0  0  0
   13.4561   -0.4061    1.1483 C   0  0  0  0  0  0
   13.7015    0.6128    2.2353 C   0  0  0  0  0  0
   14.8134    0.2396    1.2811 C   0  0  0  0  0  0
   10.6277   -0.4543    1.1817 N   0  0  0  0  0  0
    9.2768   -0.4546    1.1899 C   0  0  0  0  0  0
    3.7204    0.2930   -1.1592 C   0  0  0  0  0  0
    2.3122    0.2899   -1.1857 C   0  0  0  0  0  0
   -0.0524    2.0384    1.2114 N   0  0  0  0  0  0
    0.0974    3.3658    1.3349 C   0  0  0  0  0  0
   -0.2042    4.1630    0.4455 O   0  0  0  0  0  0
    0.6661    3.7877    2.6500 C   0  0  0  0  0  0
    0.1993    5.1088    3.2266 C   0  0  0  0  0  0
    1.5929    4.9862    2.6627 C   0  0  0  0  0  0
   -2.4737    0.7914   -0.8419 H   0  0  0  0  0  0
   -2.4560    0.7480    0.9190 H   0  0  0  0  0  0
   -2.5191    2.2923    0.0725 H   0  0  0  0  0  0
   -0.2425    1.8971   -0.8603 H   0  0  0  0  0  0
   -0.3116   -0.6901    0.7464 H   0  0  0  0  0  0
   -0.2650   -0.5516   -0.9896 H   0  0  0  0  0  0
    1.7196   -0.7015    2.0338 H   0  0  0  0  0  0
    4.1933   -0.6973    2.0817 H   0  0  0  0  0  0
    8.7873    0.6244   -1.9939 H   0  0  0  0  0  0
   13.0538    0.2314   -0.8443 H   0  0  0  0  0  0
   13.3575   -1.4524    1.4311 H   0  0  0  0  0  0
   13.2498    1.5965    2.1211 H   0  0  0  0  0  0
   13.7761    0.2485    3.2578 H   0  0  0  0  0  0
   15.6247   -0.3695    1.6746 H   0  0  0  0  0  0
   15.1026    0.9789    0.5367 H   0  0  0  0  0  0
    8.7941   -0.7633    2.1059 H   0  0  0  0  0  0
    4.2696    0.5707   -2.0476 H   0  0  0  0  0  0
    1.7941    0.5665   -2.0924 H   0  0  0  0  0  0
    0.2234    1.4603    1.9920 H   0  0  0  0  0  0
    0.8882    2.9934    3.3614 H   0  0  0  0  0  0
   -0.5181    5.7007    2.6604 H   0  0  0  0  0  0
    0.0872    5.1623    4.3076 H   0  0  0  0  0  0
    2.4266    4.9574    3.3613 H   0  0  0  0  0  0
    1.7990    5.4956    1.7227 H   0  0  0  0  0  0
  1  2  1  0  0  0
  1 28  1  0  0  0
  1 29  1  0  0  0
  1 30  1  0  0  0
  2  3  1  0  0  0
  2 22  1  0  0  0
  2 31  1  0  0  0
  3  4  1  0  0  0
  3 32  1  0  0  0
  3 33  1  0  0  0
  4 21  1  0  0  0
  4  5  2  0  0  0
  5  6  1  0  0  0
  5 34  1  0  0  0
  6  7  2  0  0  0
  6 35  1  0  0  0
  7  8  1  0  0  0
  7 20  1  0  0  0
  8  9  3  0  0  0
  9 10  1  0  0  0
 10 19  1  0  0  0
 10 11  2  0  0  0
 11 12  1  0  0  0
 11 36  1  0  0  0
 12 13  2  0  0  0
 13 14  1  0  0  0
 13 18  1  0  0  0
 14 15  1  0  0  0
 14 37  1  0  0  0
 15 17  1  0  0  0
 15 16  1  0  0  0
 15 38  1  0  0  0
 16 17  1  0  0  0
 16 39  1  0  0  0
 16 40  1  0  0  0
 17 41  1  0  0  0
 17 42  1  0  0  0
 18 19  2  0  0  0
 19 43  1  0  0  0
 20 21  2  0  0  0
 20 44  1  0  0  0
 21 45  1  0  0  0
 22 23  1  0  0  0
 22 46  1  0  0  0
 23 24  2  0  0  0
 23 25  1  0  0  0
 25 27  1  0  0  0
 25 26  1  0  0  0
 25 47  1  0  0  0
 26 27  1  0  0  0
 26 48  1  0  0  0
 26 49  1  0  0  0
 27 50  1  0  0  0
 27 51  1  0  0  0
M  END
$$$$
13
                    3D
 Schrodinger Suite 2021-2.
 28 28  0  0  1  0            999 V2000
   -3.9879    0.1720   -1.1925 C   0  0  0  0  0  0
   -2.5996    0.3886   -1.0110 O   0  0  0  0  0  0
   -2.1769    1.1520    0.0097 C   0  0  0  0  0  0
   -2.8929    1.7176    0.8364 O   0  0  0  0  0  0
   -0.6586    1.2765    0.0569 C   0  0  0  0  0  0
   -0.0967   -0.0136    0.2395 O   0  0  0  0  0  0
    1.2675   -0.0287    0.1038 C   0  0  0  0  0  0
    2.1071    0.0375    1.2431 C   0  0  0  0  0  0
    1.5324    0.1266    2.6084 C   0  0  0  0  0  0
    2.1988    0.1960    3.6401 O   0  0  0  0  0  0
    3.5090    0.0136    1.0749 C   0  0  0  0  0  0
    4.0733   -0.0775   -0.2107 C   0  0  0  0  0  0
    5.9683   -0.1187   -0.3990 Br  0  0  0  0  0  0
    3.2393   -0.1466   -1.3459 C   0  0  0  0  0  0
    3.7891   -0.2481   -2.5969 O   0  0  0  0  0  0
    4.0141    1.0098   -3.2131 C   0  0  0  0  0  0
    1.8369   -0.1381   -1.1857 C   0  0  0  0  0  0
    0.7085   -0.2953   -2.7159 Br  0  0  0  0  0  0
   -4.1526   -0.4620   -2.0638 H   0  0  0  0  0  0
   -4.4207   -0.3245   -0.3230 H   0  0  0  0  0  0
   -4.5116    1.1152   -1.3534 H   0  0  0  0  0  0
   -0.3063    1.7293   -0.8706 H   0  0  0  0  0  0
   -0.3660    1.9306    0.8790 H   0  0  0  0  0  0
    0.4431    0.1274    2.6443 H   0  0  0  0  0  0
    4.1658    0.0612    1.9317 H   0  0  0  0  0  0
    4.4386    0.8601   -4.2056 H   0  0  0  0  0  0
    3.0846    1.5691   -3.3267 H   0  0  0  0  0  0
    4.7147    1.6150   -2.6361 H   0  0  0  0  0  0
  1  2  1  0  0  0
  1 19  1  0  0  0
  1 20  1  0  0  0
  1 21  1  0  0  0
  2  3  1  0  0  0
  3  4  2  0  0  0
  3  5  1  0  0  0
  5  6  1  0  0  0
  5 22  1  0  0  0
  5 23  1  0  0  0
  6  7  1  0  0  0
  7 17  1  0  0  0
  7  8  2  0  0  0
  8  9  1  0  0  0
  8 11  1  0  0  0
  9 10  2  0  0  0
  9 24  1  0  0  0
 11 12  2  0  0  0
 11 25  1  0  0  0
 12 13  1  0  0  0
 12 14  1  0  0  0
 14 15  1  0  0  0
 14 17  2  0  0  0
 15 16  1  0  0  0
 16 26  1  0  0  0
 16 27  1  0  0  0
 16 28  1  0  0  0
 17 18  1  0  0  0
M  END
$$$$
14
                    3D
 Schrodinger Suite 2021-2.
 54 57  0  0  1  0            999 V2000
   -0.6173   -0.8393   -1.4486 C   0  0  0  0  0  0
   -0.1708   -0.1497   -0.1338 C   0  0  1  0  0  0
    1.3190   -0.1141   -0.1084 N   0  3  0  0  0  0
    2.0556   -1.3971   -0.1719 C   0  0  0  0  0  0
    3.5394   -1.1475    0.0007 C   0  0  0  0  0  0
    4.3567   -0.9171   -1.1263 C   0  0  0  0  0  0
    5.7352   -0.6782   -0.9625 C   0  0  0  0  0  0
    6.3005   -0.6673    0.3275 C   0  0  0  0  0  0
    5.4871   -0.8956    1.4544 C   0  0  0  0  0  0
    4.1088   -1.1353    1.2918 C   0  0  0  0  0  0
   -0.6366    1.2947   -0.1382 C   0  0  0  0  0  0
   -1.6229    1.8961   -0.8734 C   0  0  0  0  0  0
   -1.6060    3.2061   -0.4425 N   0  0  0  0  0  0
   -2.4034    4.3244   -0.9129 C   0  0  0  0  0  0
   -1.8224    5.0540   -2.0066 C   0  0  0  0  0  0
   -1.3542    5.6404   -2.8870 N   0  0  0  0  0  0
   -3.8948    4.0922   -0.8043 C   0  0  0  0  0  0
   -3.2020    5.0090    0.1766 C   0  0  0  0  0  0
   -0.6264    3.4129    0.4674 N   0  0  0  0  0  0
   -0.0475    2.2726    0.6699 N   0  0  0  0  0  0
   -0.7430   -0.9268    1.1047 C   0  0  0  0  0  0
   -2.2895   -0.8690    1.2151 C   0  0  0  0  0  0
   -2.8156   -1.7285    2.3763 C   0  0  0  0  0  0
   -2.1816   -1.3132    3.7106 C   0  0  0  0  0  0
   -0.6501   -1.3584    3.6259 C   0  0  0  0  0  0
   -0.1332   -0.4935    2.4656 C   0  0  0  0  0  0
    1.6269    0.4560   -0.8830 H   0  0  0  0  0  0
    1.5899    0.3530    0.7452 H   0  0  0  0  0  0
   -1.6942   -0.7852   -1.6034 H   0  0  0  0  0  0
   -0.1503   -0.3726   -2.3169 H   0  0  0  0  0  0
   -0.3583   -1.8978   -1.4653 H   0  0  0  0  0  0
    1.7245   -2.0812    0.6088 H   0  0  0  0  0  0
    1.8886   -1.8914   -1.1288 H   0  0  0  0  0  0
    3.9303   -0.9220   -2.1189 H   0  0  0  0  0  0
    6.3593   -0.5024   -1.8265 H   0  0  0  0  0  0
    7.3575   -0.4837    0.4527 H   0  0  0  0  0  0
    5.9210   -0.8865    2.4436 H   0  0  0  0  0  0
    3.4910   -1.3082    2.1611 H   0  0  0  0  0  0
   -2.3103    1.5282   -1.6212 H   0  0  0  0  0  0
   -4.5316    4.5559   -1.5550 H   0  0  0  0  0  0
   -4.2445    3.1320   -0.4290 H   0  0  0  0  0  0
   -3.0959    4.6546    1.2005 H   0  0  0  0  0  0
   -3.3816    6.0773    0.0731 H   0  0  0  0  0  0
   -0.4873   -1.9785    0.9713 H   0  0  0  0  0  0
   -2.6204    0.1601    1.3597 H   0  0  0  0  0  0
   -2.7588   -1.2158    0.2958 H   0  0  0  0  0  0
   -3.9008   -1.6420    2.4400 H   0  0  0  0  0  0
   -2.6012   -2.7799    2.1805 H   0  0  0  0  0  0
   -2.5048   -0.3047    3.9718 H   0  0  0  0  0  0
   -2.5309   -1.9674    4.5100 H   0  0  0  0  0  0
   -0.2179   -1.0149    4.5664 H   0  0  0  0  0  0
   -0.3190   -2.3891    3.4920 H   0  0  0  0  0  0
    0.9541   -0.5585    2.4487 H   0  0  0  0  0  0
   -0.3747    0.5480    2.6753 H   0  0  0  0  0  0
  1  2  1  0  0  0
  1 29  1  0  0  0
  1 30  1  0  0  0
  1 31  1  0  0  0
  2  3  1  0  0  0
  2 11  1  0  0  0
  2 21  1  0  0  0
  3 27  1  0  0  0
  3 28  1  0  0  0
  3  4  1  0  0  0
  4  5  1  0  0  0
  4 32  1  0  0  0
  4 33  1  0  0  0
  5 10  1  0  0  0
  5  6  2  0  0  0
  6  7  1  0  0  0
  6 34  1  0  0  0
  7  8  2  0  0  0
  7 35  1  0  0  0
  8  9  1  0  0  0
  8 36  1  0  0  0
  9 10  2  0  0  0
  9 37  1  0  0  0
 10 38  1  0  0  0
 11 20  1  0  0  0
 11 12  2  0  0  0
 12 13  1  0  0  0
 12 39  1  0  0  0
 13 14  1  0  0  0
 13 19  1  0  0  0
 14 18  1  0  0  0
 14 15  1  0  0  0
 14 17  1  0  0  0
 15 16  3  0  0  0
 17 18  1  0  0  0
 17 40  1  0  0  0
 17 41  1  0  0  0
 18 42  1  0  0  0
 18 43  1  0  0  0
 19 20  2  0  0  0
 21 26  1  0  0  0
 21 22  1  0  0  0
 21 44  1  0  0  0
 22 23  1  0  0  0
 22 45  1  0  0  0
 22 46  1  0  0  0
 23 24  1  0  0  0
 23 47  1  0  0  0
 23 48  1  0  0  0
 24 25  1  0  0  0
 24 49  1  0  0  0
 24 50  1  0  0  0
 25 26  1  0  0  0
 25 51  1  0  0  0
 25 52  1  0  0  0
 26 53  1  0  0  0
 26 54  1  0  0  0
M  CHG  1   3   1
M  END
$$$$
15
                    3D
 Schrodinger Suite 2021-2.
 51 54  0  0  1  0            999 V2000
    1.3852    5.6341   -1.6767 C   0  0  0  0  0  0
    0.8929    4.5224   -0.8133 C   0  0  0  0  0  0
    0.9847    4.4154    0.5512 C   0  0  0  0  0  0
    0.4007    3.2188    1.0608 C   0  0  0  0  0  0
   -0.1214    2.4231    0.0741 C   0  0  0  0  0  0
   -0.7917    1.1654    0.2204 C   0  0  0  0  0  0
   -0.1097    0.0341    0.5060 C   0  0  0  0  0  0
    1.3927   -0.0973    0.6948 C   0  0  0  0  0  0
    2.0136   -1.0175   -0.3686 C   0  0  0  0  0  0
    3.4952   -1.0700   -0.2833 N   0  3  2  0  0  0
    4.1143   -1.5736   -1.5367 C   0  0  0  0  0  0
    5.6226   -1.2712   -1.5624 C   0  0  0  0  0  0
    6.3296   -1.7139   -0.2962 C   0  0  1  0  0  0
    5.5041   -1.9030    0.9537 C   0  0  1  0  0  0
    3.9870   -1.8092    0.9116 C   0  0  0  0  0  0
    6.1698   -3.1008    0.2883 C   0  0  2  0  0  0
    7.3704   -3.7293    1.0044 C   0  0  0  0  0  0
    8.1542   -2.9779    1.6262 O   0  0  0  0  0  0
    7.4783   -4.9714    0.9166 O   0  5  0  0  0  0
   -2.2222    1.1861    0.0382 C   0  0  0  0  0  0
   -3.0567    2.2772    0.0850 C   0  0  0  0  0  0
   -4.4267    1.9496   -0.1326 C   0  0  0  0  0  0
   -4.6358    0.6111   -0.3379 C   0  0  0  0  0  0
   -5.9302   -0.0824   -0.5970 C   0  0  0  0  0  0
   -3.1365   -0.2763   -0.2659 S   0  0  0  0  0  0
    0.0763    3.1425   -1.5024 S   0  0  0  0  0  0
    3.8080   -0.1143   -0.1877 H   0  0  0  0  0  0
    7.3068   -1.2505   -0.1708 H   0  0  0  0  0  0
    5.9439   -1.5410    1.8819 H   0  0  0  0  0  0
    5.5319   -3.7954   -0.2554 H   0  0  0  0  0  0
    2.1235    6.2410   -1.1522 H   0  0  0  0  0  0
    1.8521    5.2460   -2.5822 H   0  0  0  0  0  0
    0.5626    6.2851   -1.9728 H   0  0  0  0  0  0
    1.4437    5.1500    1.1966 H   0  0  0  0  0  0
    0.3855    2.9864    2.1154 H   0  0  0  0  0  0
   -0.6436   -0.8978    0.6170 H   0  0  0  0  0  0
    1.8839    0.8744    0.6625 H   0  0  0  0  0  0
    1.5590   -0.4941    1.6958 H   0  0  0  0  0  0
    1.6008   -2.0252   -0.2996 H   0  0  0  0  0  0
    1.7275   -0.6327   -1.3487 H   0  0  0  0  0  0
    3.9278   -2.6441   -1.6355 H   0  0  0  0  0  0
    3.6551   -1.0972   -2.4037 H   0  0  0  0  0  0
    6.0953   -1.7455   -2.4228 H   0  0  0  0  0  0
    5.7718   -0.1966   -1.6734 H   0  0  0  0  0  0
    3.6557   -1.3097    1.8213 H   0  0  0  0  0  0
    3.5666   -2.8160    0.9305 H   0  0  0  0  0  0
   -2.7393    3.2939    0.2654 H   0  0  0  0  0  0
   -5.2032    2.7004   -0.1300 H   0  0  0  0  0  0
   -6.7742    0.5347   -0.2876 H   0  0  0  0  0  0
   -6.0439   -0.3020   -1.6587 H   0  0  0  0  0  0
   -5.9844   -1.0233   -0.0490 H   0  0  0  0  0  0
  1  2  1  0  0  0
  1 31  1  0  0  0
  1 32  1  0  0  0
  1 33  1  0  0  0
  2 26  1  0  0  0
  2  3  2  0  0  0
  3  4  1  0  0  0
  3 34  1  0  0  0
  4  5  2  0  0  0
  4 35  1  0  0  0
  5  6  1  0  0  0
  5 26  1  0  0  0
  6  7  2  3  0  0
  6 20  1  0  0  0
  7  8  1  0  0  0
  7 36  1  0  0  0
  8  9  1  0  0  0
  8 37  1  0  0  0
  8 38  1  0  0  0
  9 10  1  0  0  0
  9 39  1  0  0  0
  9 40  1  0  0  0
 10 27  1  0  0  0
 10 15  1  0  0  0
 10 11  1  0  0  0
 11 12  1  0  0  0
 11 41  1  0  0  0
 11 42  1  0  0  0
 12 13  1  0  0  0
 12 43  1  0  0  0
 12 44  1  0  0  0
 13 28  1  0  0  0
 13 16  1  0  0  0
 13 14  1  0  0  0
 14 29  1  0  0  0
 14 15  1  0  0  0
 14 16  1  0  0  0
 15 45  1  0  0  0
 15 46  1  0  0  0
 16 30  1  0  0  0
 16 17  1  0  0  0
 17 18  2  0  0  0
 17 19  1  0  0  0
 20 25  1  0  0  0
 20 21  2  0  0  0
 21 22  1  0  0  0
 21 47  1  0  0  0
 22 23  2  0  0  0
 22 48  1  0  0  0
 23 24  1  0  0  0
 23 25  1  0  0  0
 24 49  1  0  0  0
 24 50  1  0  0  0
 24 51  1  0  0  0
M  CHG  2  10   1  19  -1
M  END
$$$$
16
                    3D
 Schrodinger Suite 2021-2.
 43 44  0  0  1  0            999 V2000
   -0.7223    2.0555   -0.9262 O   0  0  0  0  0  0
   -0.6260    1.4165    0.1216 C   0  0  0  0  0  0
   -0.2243   -0.0611    0.0853 C   0  0  0  0  0  0
    1.3017   -0.2731    0.1094 C   0  0  0  0  0  0
    1.9626    0.3758   -1.0271 N   0  0  1  0  0  0
    3.6760    0.5717   -1.0224 S   0  0  0  0  0  0
    4.0367    1.2949   -2.2514 O   0  0  0  0  0  0
    4.0703    1.0939    0.2956 O   0  0  0  0  0  0
    4.2470   -1.1159   -1.1812 C   0  0  0  0  0  0
    4.7075   -1.8144   -0.0465 C   0  0  0  0  0  0
    5.1513   -3.1445   -0.1821 C   0  0  0  0  0  0
    5.1346   -3.7694   -1.4454 C   0  0  0  0  0  0
    5.7353   -5.5661   -1.6239 Br  0  0  0  0  0  0
    4.6720   -3.0665   -2.5762 C   0  0  0  0  0  0
    4.2259   -1.7367   -2.4462 C   0  0  0  0  0  0
   -0.8604    1.9420    1.3339 N   0  0  0  0  0  0
   -1.2124    3.3344    1.5943 C   0  0  0  0  0  0
    0.0446    4.2299    1.5538 C   0  0  0  0  0  0
   -0.2907    5.6881    1.9063 C   0  0  0  0  0  0
   -0.9919    5.7852    3.2699 C   0  0  0  0  0  0
   -2.2492    4.9024    3.3088 C   0  0  0  0  0  0
   -1.9164    3.4424    2.9604 C   0  0  0  0  0  0
   -0.6817   -0.5815    0.9279 H   0  0  0  0  0  0
   -0.6447   -0.5133   -0.8140 H   0  0  0  0  0  0
    1.7133    0.1208    1.0394 H   0  0  0  0  0  0
    1.5303   -1.3387    0.0898 H   0  0  0  0  0  0
    1.5997    0.0823   -1.9339 H   0  0  0  0  0  0
    4.7197   -1.3407    0.9240 H   0  0  0  0  0  0
    5.5047   -3.6855    0.6836 H   0  0  0  0  0  0
    4.6589   -3.5467   -3.5436 H   0  0  0  0  0  0
    3.8697   -1.1994   -3.3129 H   0  0  0  0  0  0
   -0.7649    1.3392    2.1382 H   0  0  0  0  0  0
   -1.9112    3.6712    0.8258 H   0  0  0  0  0  0
    0.7906    3.8515    2.2543 H   0  0  0  0  0  0
    0.5051    4.1925    0.5659 H   0  0  0  0  0  0
    0.6202    6.2876    1.9124 H   0  0  0  0  0  0
   -0.9342    6.1111    1.1338 H   0  0  0  0  0  0
   -0.3036    5.4770    4.0580 H   0  0  0  0  0  0
   -1.2581    6.8217    3.4786 H   0  0  0  0  0  0
   -2.7092    4.9535    4.2960 H   0  0  0  0  0  0
   -2.9869    5.2870    2.6033 H   0  0  0  0  0  0
   -2.8316    2.8489    2.9578 H   0  0  0  0  0  0
   -1.2784    3.0233    3.7401 H   0  0  0  0  0  0
  1  2  2  0  0  0
  2  3  1  0  0  0
  2 16  1  0  0  0
  3  4  1  0  0  0
  3 23  1  0  0  0
  3 24  1  0  0  0
  4  5  1  0  0  0
  4 25  1  0  0  0
  4 26  1  0  0  0
  5  6  1  0  0  0
  5 27  1  0  0  0
  6  7  2  0  0  0
  6  8  2  0  0  0
  6  9  1  0  0  0
  9 15  1  0  0  0
  9 10  2  0  0  0
 10 11  1  0  0  0
 10 28  1  0  0  0
 11 12  2  0  0  0
 11 29  1  0  0  0
 12 13  1  0  0  0
 12 14  1  0  0  0
 14 15  2  0  0  0
 14 30  1  0  0  0
 15 31  1  0  0  0
 16 17  1  0  0  0
 16 32  1  0  0  0
 17 22  1  0  0  0
 17 18  1  0  0  0
 17 33  1  0  0  0
 18 19  1  0  0  0
 18 34  1  0  0  0
 18 35  1  0  0  0
 19 20  1  0  0  0
 19 36  1  0  0  0
 19 37  1  0  0  0
 20 21  1  0  0  0
 20 38  1  0  0  0
 20 39  1  0  0  0
 21 22  1  0  0  0
 21 40  1  0  0  0
 21 41  1  0  0  0
 22 42  1  0  0  0
 22 43  1  0  0  0
M  END
$$$$
17
                    3D
 Schrodinger Suite 2021-2.
 50 52  0  0  1  0            999 V2000
   -4.7539   -0.4850    0.4481 O   0  0  0  0  0  0
   -4.1258   -1.5419    0.3769 C   0  0  0  0  0  0
   -4.7124   -2.7486    0.3807 N   0  0  0  0  0  0
   -6.1499   -2.9840    0.4777 C   0  0  0  0  0  0
   -6.6512   -2.8550    1.9315 C   0  0  0  0  0  0
   -7.4523   -4.1260    2.2220 C   0  0  0  0  0  0
   -6.8328   -5.1822    1.3123 C   0  0  0  0  0  0
   -6.4915   -4.4176    0.0334 C   0  0  0  0  0  0
   -2.5946   -1.5287    0.2838 C   0  0  2  0  0  0
   -1.9699   -0.8725    1.5315 C   0  0  0  0  0  0
   -0.4357   -0.8503    1.4394 C   0  0  0  0  0  0
    0.0504   -0.1275    0.1672 C   0  0  1  0  0  0
    1.5883   -0.1222    0.0962 C   0  0  0  0  0  0
    2.0601    0.7455   -0.9834 N   0  0  2  0  0  0
    3.7544    0.8921   -1.2637 S   0  0  0  0  0  0
    4.3504   -0.4527   -1.2321 O   0  0  0  0  0  0
    3.9440    1.7837   -2.4179 O   0  0  0  0  0  0
    4.3422    1.7757    0.1625 C   0  0  0  0  0  0
    4.1408    3.1016    0.4436 C   0  0  0  0  0  0
    4.7400    3.4992    1.6753 C   0  0  0  0  0  0
    5.3855    2.4700    2.3104 C   0  0  0  0  0  0
    5.2723    0.9829    1.4064 S   0  0  0  0  0  0
   -0.5866   -0.7764   -1.0808 C   0  0  0  0  0  0
   -2.1210   -0.7994   -0.9895 C   0  0  0  0  0  0
   -4.1198   -3.5639    0.3181 H   0  0  0  0  0  0
   -6.6757   -2.2793   -0.1694 H   0  0  0  0  0  0
   -5.8115   -2.7980    2.6261 H   0  0  0  0  0  0
   -7.2499   -1.9557    2.0793 H   0  0  0  0  0  0
   -7.4233   -4.4086    3.2749 H   0  0  0  0  0  0
   -8.4966   -3.9734    1.9469 H   0  0  0  0  0  0
   -5.9189   -5.5677    1.7660 H   0  0  0  0  0  0
   -7.4990   -6.0263    1.1322 H   0  0  0  0  0  0
   -7.3706   -4.3923   -0.6118 H   0  0  0  0  0  0
   -5.6936   -4.8991   -0.5336 H   0  0  0  0  0  0
   -2.2453   -2.5618    0.2330 H   0  0  0  0  0  0
   -2.3375    0.1488    1.6456 H   0  0  0  0  0  0
   -2.2727   -1.4111    2.4305 H   0  0  0  0  0  0
   -0.0271   -0.3627    2.3251 H   0  0  0  0  0  0
   -0.0572   -1.8736    1.4497 H   0  0  0  0  0  0
   -0.2893    0.9081    0.2259 H   0  0  0  0  0  0
    2.0044    0.2398    1.0369 H   0  0  0  0  0  0
    1.9713   -1.1323   -0.0542 H   0  0  0  0  0  0
    1.5792    1.6438   -1.0217 H   0  0  0  0  0  0
    3.5921    3.7887   -0.1832 H   0  0  0  0  0  0
    4.6777    4.5112    2.0472 H   0  0  0  0  0  0
    5.9190    2.4940    3.2493 H   0  0  0  0  0  0
   -0.2907   -0.2373   -1.9812 H   0  0  0  0  0  0
   -0.2148   -1.7953   -1.1972 H   0  0  0  0  0  0
   -2.5305   -1.2869   -1.8752 H   0  0  0  0  0  0
   -2.4962    0.2252   -1.0005 H   0  0  0  0  0  0
  1  2  2  0  0  0
  2  3  1  0  0  0
  2  9  1  0  0  0
  3  4  1  0  0  0
  3 25  1  0  0  0
  4  8  1  0  0  0
  4  5  1  0  0  0
  4 26  1  0  0  0
  5  6  1  0  0  0
  5 27  1  0  0  0
  5 28  1  0  0  0
  6  7  1  0  0  0
  6 29  1  0  0  0
  6 30  1  0  0  0
  7  8  1  0  0  0
  7 31  1  0  0  0
  7 32  1  0  0  0
  8 33  1  0  0  0
  8 34  1  0  0  0
  9 24  1  0  0  0
  9 10  1  0  0  0
  9 35  1  0  0  0
 10 11  1  0  0  0
 10 36  1  0  0  0
 10 37  1  0  0  0
 11 12  1  0  0  0
 11 38  1  0  0  0
 11 39  1  0  0  0
 12 13  1  0  0  0
 12 23  1  0  0  0
 12 40  1  0  0  0
 13 14  1  0  0  0
 13 41  1  0  0  0
 13 42  1  0  0  0
 14 15  1  0  0  0
 14 43  1  0  0  0
 15 16  2  0  0  0
 15 17  2  0  0  0
 15 18  1  0  0  0
 18 22  1  0  0  0
 18 19  2  0  0  0
 19 20  1  0  0  0
 19 44  1  0  0  0
 20 21  2  0  0  0
 20 45  1  0  0  0
 21 22  1  0  0  0
 21 46  1  0  0  0
 23 24  1  0  0  0
 23 47  1  0  0  0
 23 48  1  0  0  0
 24 49  1  0  0  0
 24 50  1  0  0  0
M  END
$$$$
18
                    3D
 Schrodinger Suite 2021-2.
 36 38  0  0  1  0            999 V2000
   -2.0100    1.3349    2.2834 O   0  0  0  0  0  0
   -2.6077    1.3822    1.2056 C   0  0  0  0  0  0
   -4.1148    1.4412    1.2113 C   0  0  0  0  0  0
   -4.8402    1.4692    2.4259 C   0  0  0  0  0  0
   -6.2423    1.5234    2.4478 C   0  0  0  0  0  0
   -6.9550    1.5513    1.2412 C   0  0  0  0  0  0
   -6.2788    1.5246    0.0066 C   0  0  0  0  0  0
   -6.9581    1.5509   -1.2263 C   0  0  0  0  0  0
   -6.2485    1.5227   -2.4348 C   0  0  0  0  0  0
   -4.8463    1.4687   -2.4165 C   0  0  0  0  0  0
   -4.1178    1.4411   -1.2037 C   0  0  0  0  0  0
   -4.8562    1.4694    0.0047 C   0  0  0  0  0  0
   -2.6106    1.3828   -1.2019 C   0  0  0  0  0  0
   -2.0158    1.3366   -2.2813 O   0  0  0  0  0  0
   -1.9666    1.3812    0.0010 N   0  0  0  0  0  0
   -0.4872    1.3382   -0.0007 C   0  0  0  0  0  0
    0.0402   -0.1089    0.0003 C   0  0  0  0  0  0
    1.5736   -0.1745   -0.0018 C   0  0  0  0  0  0
    2.0984   -1.6171   -0.0017 C   0  0  0  0  0  0
    3.5361   -1.6232   -0.0046 N   0  0  0  0  0  0
    4.4897   -2.3816    0.0001 C   0  0  0  0  0  0
    5.8146   -3.4737    0.0002 Se  0  0  0  0  0  0
   -4.3161    1.4497    3.3705 H   0  0  0  0  0  0
   -6.7697    1.5437    3.3903 H   0  0  0  0  0  0
   -8.0343    1.5936    1.2641 H   0  0  0  0  0  0
   -8.0374    1.5931   -1.2465 H   0  0  0  0  0  0
   -6.7783    1.5426   -3.3758 H   0  0  0  0  0  0
   -4.3248    1.4490   -3.3625 H   0  0  0  0  0  0
   -0.0785    1.8757   -0.8583 H   0  0  0  0  0  0
   -0.0766    1.8777    0.8549 H   0  0  0  0  0  0
   -0.3413   -0.6378    0.8746 H   0  0  0  0  0  0
   -0.3438   -0.6396   -0.8718 H   0  0  0  0  0  0
    1.9567    0.3527   -0.8769 H   0  0  0  0  0  0
    1.9592    0.3538    0.8715 H   0  0  0  0  0  0
    1.7303   -2.1500    0.8759 H   0  0  0  0  0  0
    1.7269   -2.1514   -0.8770 H   0  0  0  0  0  0
  1  2  2  0  0  0
  2 15  1  0  0  0
  2  3  1  0  0  0
  3 12  1  0  0  0
  3  4  2  0  0  0
  4  5  1  0  0  0
  4 23  1  0  0  0
  5  6  2  0  0  0
  5 24  1  0  0  0
  6  7  1  0  0  0
  6 25  1  0  0  0
  7 12  1  0  0  0
  7  8  2  0  0  0
  8  9  1  0  0  0
  8 26  1  0  0  0
  9 10  2  0  0  0
  9 27  1  0  0  0
 10 11  1  0  0  0
 10 28  1  0  0  0
 11 12  2  0  0  0
 11 13  1  0  0  0
 13 14  2  0  0  0
 13 15  1  0  0  0
 15 16  1  0  0  0
 16 17  1  0  0  0
 16 29  1  0  0  0
 16 30  1  0  0  0
 17 18  1  0  0  0
 17 31  1  0  0  0
 17 32  1  0  0  0
 18 19  1  0  0  0
 18 33  1  0  0  0
 18 34  1  0  0  0
 19 20  1  0  0  0
 19 35  1  0  0  0
 19 36  1  0  0  0
 20 21  2  0  0  0
 21 22  2  0  0  0
M  END
$$$$
19
                    3D
 Schrodinger Suite 2021-2.
 43 45  0  0  1  0            999 V2000
   -2.9255    2.4221   -0.2286 N   0  0  0  0  0  0
   -2.3386    1.2294   -0.1051 C   0  0  0  0  0  0
   -2.9808    0.1811   -0.1290 O   0  0  0  0  0  0
   -0.8170    1.2289    0.0734 C   0  0  0  0  0  0
   -0.1653   -0.1335   -0.2414 C   0  0  0  0  0  0
    1.3506   -0.0989   -0.0909 C   0  0  0  0  0  0
    2.0675    0.0699   -1.1318 N   0  0  0  0  0  0
    3.4608    0.0944   -1.0119 C   0  0  0  0  0  0
    4.2383    0.2541   -2.1768 C   0  0  0  0  0  0
    5.6468    0.2742   -2.1057 C   0  0  0  0  0  0
    6.4881    0.4359   -3.3631 C   0  0  0  0  0  0
    7.5544    1.1969   -3.1145 F   0  0  0  0  0  0
    6.9018   -0.7632   -3.7711 F   0  0  0  0  0  0
    5.7897    1.0056   -4.3459 F   0  0  0  0  0  0
    6.2738    0.1198   -0.8530 C   0  0  0  0  0  0
    5.5064   -0.0387    0.3159 C   0  0  0  0  0  0
    4.0916   -0.0467    0.2513 C   0  0  0  0  0  0
    3.2625   -0.2065    1.4170 N   0  0  0  0  0  0
    3.8893   -0.3272    2.7485 C   0  0  0  0  0  0
    4.4803   -1.6976    3.0687 C   0  0  0  0  0  0
    5.4276   -1.8007    4.1095 C   0  0  0  0  0  0
    5.9970   -3.0464    4.4370 C   0  0  0  0  0  0
    5.6199   -4.2015    3.7265 C   0  0  0  0  0  0
    4.6710   -4.1097    2.6911 C   0  0  0  0  0  0
    4.1012   -2.8641    2.3636 C   0  0  0  0  0  0
    1.9032   -0.2667    1.3199 C   0  0  0  0  0  0
    1.1443   -0.4448    2.2746 O   0  0  0  0  0  0
   -3.9268    2.4769   -0.3472 H   0  0  0  0  0  0
   -2.3697    3.2647   -0.2026 H   0  0  0  0  0  0
   -0.3891    1.9981   -0.5719 H   0  0  0  0  0  0
   -0.5984    1.5239    1.1006 H   0  0  0  0  0  0
   -0.5770   -0.9147    0.3995 H   0  0  0  0  0  0
   -0.4127   -0.4304   -1.2623 H   0  0  0  0  0  0
    3.7453    0.3563   -3.1326 H   0  0  0  0  0  0
    7.3517    0.1187   -0.7845 H   0  0  0  0  0  0
    6.0331   -0.1606    1.2496 H   0  0  0  0  0  0
    4.6655    0.4322    2.8477 H   0  0  0  0  0  0
    3.1929   -0.0815    3.5516 H   0  0  0  0  0  0
    5.7235   -0.9199    4.6606 H   0  0  0  0  0  0
    6.7226   -3.1157    5.2338 H   0  0  0  0  0  0
    6.0567   -5.1570    3.9769 H   0  0  0  0  0  0
    4.3789   -4.9958    2.1469 H   0  0  0  0  0  0
    3.3738   -2.8204    1.5668 H   0  0  0  0  0  0
  1  2  1  0  0  0
  1 28  1  0  0  0
  1 29  1  0  0  0
  2  3  2  0  0  0
  2  4  1  0  0  0
  4  5  1  0  0  0
  4 30  1  0  0  0
  4 31  1  0  0  0
  5  6  1  0  0  0
  5 32  1  0  0  0
  5 33  1  0  0  0
  6 26  1  0  0  0
  6  7  2  0  0  0
  7  8  1  0  0  0
  8 17  2  0  0  0
  8  9  1  0  0  0
  9 10  2  0  0  0
  9 34  1  0  0  0
 10 11  1  0  0  0
 10 15  1  0  0  0
 11 12  1  0  0  0
 11 13  1  0  0  0
 11 14  1  0  0  0
 15 16  2  0  0  0
 15 35  1  0  0  0
 16 17  1  0  0  0
 16 36  1  0  0  0
 17 18  1  0  0  0
 18 19  1  0  0  0
 18 26  1  0  0  0
 19 20  1  0  0  0
 19 37  1  0  0  0
 19 38  1  0  0  0
 20 25  1  0  0  0
 20 21  2  0  0  0
 21 22  1  0  0  0
 21 39  1  0  0  0
 22 23  2  0  0  0
 22 40  1  0  0  0
 23 24  1  0  0  0
 23 41  1  0  0  0
 24 25  2  0  0  0
 24 42  1  0  0  0
 25 43  1  0  0  0
 26 27  2  0  0  0
M  END
$$$$
20
                    3D
 Schrodinger Suite 2021-2.
 46 48  0  0  1  0            999 V2000
   -1.3647    6.0713    0.0631 C   0  0  0  0  0  0
   -1.0491    4.5898    0.0594 C   0  0  0  0  0  0
   -0.8611    3.9011    1.2766 C   0  0  0  0  0  0
   -0.5661    2.5238    1.2721 C   0  0  0  0  0  0
   -0.4687    1.8362    0.0460 C   0  0  0  0  0  0
   -0.0559    0.0963    0.0383 S   0  0  0  0  0  0
   -0.5057   -0.4869    1.3122 O   0  0  0  0  0  0
   -0.5301   -0.4837   -1.2282 O   0  0  0  0  0  0
    1.7872    0.0869    0.0208 C   0  0  0  0  0  0
    2.2900   -1.3426    0.0530 C   0  0  0  0  0  0
    2.5980   -1.9589    1.2830 C   0  0  0  0  0  0
    3.0602   -3.2883    1.3098 C   0  0  0  0  0  0
    3.2081   -4.0080    0.1087 C   0  0  0  0  0  0
    2.8826   -3.4042   -1.1269 C   0  0  0  0  0  0
    3.0586   -4.1504   -2.4178 C   0  0  0  0  0  0
    3.7859   -3.6623   -3.2834 O   0  0  0  0  0  0
    2.4189   -5.3362   -2.5723 N   0  0  0  0  0  0
    2.6258   -6.1953   -3.7414 C   0  0  0  0  0  0
    1.3426   -6.1886   -4.5900 C   0  0  0  0  0  0
    0.2495   -6.6446   -3.7980 O   0  0  0  0  0  0
    0.0313   -5.8445   -2.6390 C   0  0  0  0  0  0
    1.2977   -5.8308   -1.7629 C   0  0  0  0  0  0
    2.4429   -2.0637   -1.1491 C   0  0  0  0  0  0
   -0.6380    2.5201   -1.1742 C   0  0  0  0  0  0
   -0.9335    3.8973   -1.1645 C   0  0  0  0  0  0
   -1.7847    6.3810    1.0206 H   0  0  0  0  0  0
   -0.4582    6.6491   -0.1176 H   0  0  0  0  0  0
   -2.0878    6.3128   -0.7166 H   0  0  0  0  0  0
   -0.9399    4.4269    2.2170 H   0  0  0  0  0  0
   -0.4165    2.0032    2.2064 H   0  0  0  0  0  0
    2.1324    0.5987   -0.8778 H   0  0  0  0  0  0
    2.1477    0.6434    0.8862 H   0  0  0  0  0  0
    2.4804   -1.4145    2.2086 H   0  0  0  0  0  0
    3.3009   -3.7568    2.2527 H   0  0  0  0  0  0
    3.5678   -5.0264    0.1400 H   0  0  0  0  0  0
    3.4765   -5.8844   -4.3494 H   0  0  0  0  0  0
    2.8499   -7.2095   -3.4075 H   0  0  0  0  0  0
    1.1351   -5.1892   -4.9759 H   0  0  0  0  0  0
    1.4549   -6.8476   -5.4510 H   0  0  0  0  0  0
   -0.2462   -4.8309   -2.9336 H   0  0  0  0  0  0
   -0.8095   -6.2552   -2.0801 H   0  0  0  0  0  0
    1.5243   -6.8373   -1.4086 H   0  0  0  0  0  0
    1.0957   -5.2340   -0.8755 H   0  0  0  0  0  0
    2.2062   -1.5889   -2.0908 H   0  0  0  0  0  0
   -0.5444    1.9974   -2.1146 H   0  0  0  0  0  0
   -1.0688    4.4214   -2.0994 H   0  0  0  0  0  0
  1  2  1  0  0  0
  1 26  1  0  0  0
  1 27  1  0  0  0
  1 28  1  0  0  0
  2 25  1  0  0  0
  2  3  2  0  0  0
  3  4  1  0  0  0
  3 29  1  0  0  0
  4  5  2  0  0  0
  4 30  1  0  0  0
  5  6  1  0  0  0
  5 24  1  0  0  0
  6  7  2  0  0  0
  6  8  2  0  0  0
  6  9  1  0  0  0
  9 10  1  0  0  0
  9 31  1  0  0  0
  9 32  1  0  0  0
 10 23  1  0  0  0
 10 11  2  0  0  0
 11 12  1  0  0  0
 11 33  1  0  0  0
 12 13  2  0  0  0
 12 34  1  0  0  0
 13 14  1  0  0  0
 13 35  1  0  0  0
 14 15  1  0  0  0
 14 23  2  0  0  0
 15 16  2  0  0  0
 15 17  1  0  0  0
 17 22  1  0  0  0
 17 18  1  0  0  0
 18 19  1  0  0  0
 18 36  1  0  0  0
 18 37  1  0  0  0
 19 20  1  0  0  0
 19 38  1  0  0  0
 19 39  1  0  0  0
 20 21  1  0  0  0
 21 22  1  0  0  0
 21 40  1  0  0  0
 21 41  1  0  0  0
 22 42  1  0  0  0
 22 43  1  0  0  0
 23 44  1  0  0  0
 24 25  2  0  0  0
 24 45  1  0  0  0
 25 46  1  0  0  0
M  END
$$$$
21
                    3D
 Schrodinger Suite 2021-2.
 58 60  0  0  1  0            999 V2000
   -0.0671   -1.3374   -2.5376 C   0  0  0  0  0  0
   -0.6618   -0.6715   -1.5293 C   0  0  0  0  0  0
   -2.1692   -0.6569   -1.3880 C   0  0  0  0  0  0
   -2.7017    0.7799   -1.3633 C   0  0  0  0  0  0
   -1.9925    1.6366   -0.2795 C   0  0  1  0  0  0
   -0.4243    1.6447   -0.4829 C   0  0  1  0  0  0
    0.0274    2.2870   -1.8240 C   0  0  0  0  0  0
    0.2165    2.4305    0.6923 C   0  0  0  0  0  0
   -0.4122    3.8058    0.9396 C   0  0  0  0  0  0
   -1.9153    3.6838    1.2140 C   0  0  1  0  0  0
   -2.4098    4.9683    1.5426 O   0  0  0  0  0  0
   -2.7073    3.0074    0.0521 C   0  0  2  0  0  0
   -4.1322    2.6922    0.5906 C   0  0  0  0  0  0
   -2.8358    3.9374   -1.1983 C   0  0  0  0  0  0
   -3.8057    4.9581   -1.0519 O   0  0  0  0  0  0
    0.0667    0.1466   -0.4513 C   0  0  2  0  0  0
    1.6172   -0.0487   -0.4526 C   0  0  0  0  0  0
    2.1309   -1.4574   -0.1247 C   0  0  0  0  0  0
    1.0921   -2.2449    0.3333 O   0  0  0  0  0  0
    1.3574   -3.3720    1.1533 C   0  0  0  0  0  0
    3.4297   -1.8511   -0.2790 C   0  0  0  0  0  0
    4.0473   -3.2180   -0.1037 C   0  0  0  0  0  0
    5.4394   -3.1029   -0.7179 C   0  0  0  0  0  0
    5.6298   -1.7116   -0.8919 O   0  0  0  0  0  0
    4.5298   -0.9719   -0.7238 C   0  0  0  0  0  0
    4.4972    0.2469   -0.8841 O   0  0  0  0  0  0
   -2.1287    1.0632    0.6394 H   0  0  0  0  0  0
   -2.0339    3.0755    2.1122 H   0  0  0  0  0  0
   -0.2796   -0.2571    0.5014 H   0  0  0  0  0  0
   -0.6553   -1.8829   -3.2607 H   0  0  0  0  0  0
    1.0030   -1.3547   -2.6729 H   0  0  0  0  0  0
   -2.6382   -1.2156   -2.1990 H   0  0  0  0  0  0
   -2.4341   -1.1696   -0.4626 H   0  0  0  0  0  0
   -2.5818    1.2226   -2.3509 H   0  0  0  0  0  0
   -3.7743    0.7244   -1.1905 H   0  0  0  0  0  0
    1.1084    2.2317   -1.9444 H   0  0  0  0  0  0
   -0.4100    1.7991   -2.6938 H   0  0  0  0  0  0
   -0.2066    3.3422   -1.8973 H   0  0  0  0  0  0
    0.1373    1.8454    1.6097 H   0  0  0  0  0  0
    1.2813    2.5842    0.5204 H   0  0  0  0  0  0
    0.0786    4.2647    1.7989 H   0  0  0  0  0  0
   -0.2204    4.4738    0.1009 H   0  0  0  0  0  0
   -3.3391    4.8996    1.7006 H   0  0  0  0  0  0
   -4.6034    3.5674    1.0385 H   0  0  0  0  0  0
   -4.8059    2.3568   -0.1969 H   0  0  0  0  0  0
   -4.1151    1.9224    1.3627 H   0  0  0  0  0  0
   -1.9046    4.4454   -1.4269 H   0  0  0  0  0  0
   -3.1147    3.3726   -2.0858 H   0  0  0  0  0  0
   -3.8034    5.4892   -1.8336 H   0  0  0  0  0  0
    2.0156    0.2568   -1.4191 H   0  0  0  0  0  0
    2.0799    0.5960    0.2909 H   0  0  0  0  0  0
    0.4401   -3.6366    1.6788 H   0  0  0  0  0  0
    1.6422   -4.2451    0.5690 H   0  0  0  0  0  0
    2.1068   -3.1601    1.9162 H   0  0  0  0  0  0
    4.1314   -3.4620    0.9549 H   0  0  0  0  0  0
    3.4745   -3.9929   -0.6118 H   0  0  0  0  0  0
    6.2089   -3.5294   -0.0742 H   0  0  0  0  0  0
    5.4841   -3.5975   -1.6886 H   0  0  0  0  0  0
  1  2  2  0  0  0
  1 30  1  0  0  0
  1 31  1  0  0  0
  2 16  1  0  0  0
  2  3  1  0  0  0
  3  4  1  0  0  0
  3 32  1  0  0  0
  3 33  1  0  0  0
  4  5  1  0  0  0
  4 34  1  0  0  0
  4 35  1  0  0  0
  5 27  1  0  0  0
  5 12  1  0  0  0
  5  6  1  0  0  0
  6  7  1  0  0  0
  6  8  1  0  0  0
  6 16  1  0  0  0
  7 36  1  0  0  0
  7 37  1  0  0  0
  7 38  1  0  0  0
  8  9  1  0  0  0
  8 39  1  0  0  0
  8 40  1  0  0  0
  9 10  1  0  0  0
  9 41  1  0  0  0
  9 42  1  0  0  0
 10 28  1  0  0  0
 10 11  1  0  0  0
 10 12  1  0  0  0
 11 43  1  0  0  0
 12 13  1  0  0  0
 12 14  1  0  0  0
 13 44  1  0  0  0
 13 45  1  0  0  0
 13 46  1  0  0  0
 14 15  1  0  0  0
 14 47  1  0  0  0
 14 48  1  0  0  0
 15 49  1  0  0  0
 16 29  1  0  0  0
 16 17  1  0  0  0
 17 18  1  0  0  0
 17 50  1  0  0  0
 17 51  1  0  0  0
 18 19  1  0  0  0
 18 21  2  0  0  0
 19 20  1  0  0  0
 20 52  1  0  0  0
 20 53  1  0  0  0
 20 54  1  0  0  0
 21 25  1  0  0  0
 21 22  1  0  0  0
 22 23  1  0  0  0
 22 55  1  0  0  0
 22 56  1  0  0  0
 23 24  1  0  0  0
 23 57  1  0  0  0
 23 58  1  0  0  0
 24 25  1  0  0  0
 25 26  2  0  0  0
M  END
$$$$
22
                    3D
 Schrodinger Suite 2021-2.
 44 45  0  0  1  0            999 V2000
   -0.6549   -1.1024    0.9983 C   0  0  0  0  0  0
   -0.0588   -0.2239   -0.1142 C   0  0  0  0  0  0
   -0.4214   -0.7586   -1.5088 C   0  0  0  0  0  0
    1.4569   -0.0549    0.0438 C   0  0  0  0  0  0
    2.2642   -1.2134    0.0404 C   0  0  0  0  0  0
    3.6555   -1.1217    0.2042 C   0  0  0  0  0  0
    4.2592    0.1327    0.3858 C   0  0  0  0  0  0
    3.4832    1.3127    0.4008 C   0  0  0  0  0  0
    4.1898    2.6612    0.5943 C   0  0  0  0  0  0
    4.9200    3.0871   -0.6877 C   0  0  0  0  0  0
    5.1317    2.6663    1.8109 C   0  0  0  0  0  0
    2.0773    1.2184    0.1991 C   0  0  0  0  0  0
    1.3065    2.4068    0.1798 N   0  0  0  0  0  0
    0.8544    2.9950   -0.9393 C   0  0  0  0  0  0
    0.9221    2.5245   -2.0746 O   0  0  0  0  0  0
    0.2344    4.3687   -0.6589 C   0  0  0  0  0  0
   -0.5792    4.5311    0.2536 O   0  0  0  0  0  0
    0.7241    5.5183   -1.5605 C   0  0  2  0  0  0
    2.4031    6.0035   -1.0961 S   0  0  0  0  0  0
    1.9238    7.6402   -0.7094 C   0  0  0  0  0  0
    2.9590    8.8070   -0.1451 S   0  0  0  0  0  0
    0.6061    7.8193   -0.9369 N   0  0  0  0  0  0
   -0.1107    6.7881   -1.3946 C   0  0  0  0  0  0
   -1.3085    6.8413   -1.6702 O   0  0  0  0  0  0
   -0.4300   -0.6910    1.9828 H   0  0  0  0  0  0
   -1.7399   -1.1611    0.9082 H   0  0  0  0  0  0
   -0.2701   -2.1217    0.9667 H   0  0  0  0  0  0
   -0.5518    0.7407   -0.0146 H   0  0  0  0  0  0
   -0.0419   -0.1019   -2.2917 H   0  0  0  0  0  0
   -0.0080   -1.7528   -1.6803 H   0  0  0  0  0  0
   -1.5026   -0.8253   -1.6329 H   0  0  0  0  0  0
    1.8179   -2.1879   -0.0899 H   0  0  0  0  0  0
    4.2606   -2.0162    0.1948 H   0  0  0  0  0  0
    5.3309    0.1789    0.5065 H   0  0  0  0  0  0
    3.4545    3.4352    0.8066 H   0  0  0  0  0  0
    4.2268    3.1558   -1.5267 H   0  0  0  0  0  0
    5.3874    4.0648   -0.5669 H   0  0  0  0  0  0
    5.7014    2.3757   -0.9573 H   0  0  0  0  0  0
    4.5978    2.3867    2.7195 H   0  0  0  0  0  0
    5.9693    1.9799    1.6892 H   0  0  0  0  0  0
    5.5508    3.6599    1.9715 H   0  0  0  0  0  0
    1.2496    2.9320    1.0404 H   0  0  0  0  0  0
    0.7084    5.2144   -2.6077 H   0  0  0  0  0  0
    0.1835    8.7214   -0.7709 H   0  0  0  0  0  0
  1  2  1  0  0  0
  1 25  1  0  0  0
  1 26  1  0  0  0
  1 27  1  0  0  0
  2  3  1  0  0  0
  2  4  1  0  0  0
  2 28  1  0  0  0
  3 29  1  0  0  0
  3 30  1  0  0  0
  3 31  1  0  0  0
  4 12  1  0  0  0
  4  5  2  0  0  0
  5  6  1  0  0  0
  5 32  1  0  0  0
  6  7  2  0  0  0
  6 33  1  0  0  0
  7  8  1  0  0  0
  7 34  1  0  0  0
  8  9  1  0  0  0
  8 12  2  0  0  0
  9 10  1  0  0  0
  9 11  1  0  0  0
  9 35  1  0  0  0
 10 36  1  0  0  0
 10 37  1  0  0  0
 10 38  1  0  0  0
 11 39  1  0  0  0
 11 40  1  0  0  0
 11 41  1  0  0  0
 12 13  1  0  0  0
 13 14  1  0  0  0
 13 42  1  0  0  0
 14 15  2  0  0  0
 14 16  1  0  0  0
 16 17  2  0  0  0
 16 18  1  0  0  0
 18 23  1  0  0  0
 18 19  1  0  0  0
 18 43  1  0  0  0
 19 20  1  0  0  0
 20 21  2  0  0  0
 20 22  1  0  0  0
 22 23  1  0  0  0
 22 44  1  0  0  0
 23 24  2  0  0  0
M  END
$$$$
23
                    3D
 Schrodinger Suite 2021-2.
 51 52  0  0  1  0            999 V2000
   -4.7295   -2.2748   -2.4975 C   0  0  0  0  0  0
   -3.6153   -3.1219   -1.8390 C   0  0  0  0  0  0
   -4.1953   -4.5567   -1.7115 C   0  0  0  0  0  0
   -2.3577   -3.2546   -2.7347 C   0  0  0  0  0  0
   -3.2670   -2.5824   -0.4129 C   0  0  0  0  0  0
   -3.5569   -3.2950    0.5510 O   0  0  0  0  0  0
   -2.6704   -1.3743   -0.2042 N   0  0  0  0  0  0
   -2.3149   -0.9087    1.1457 C   0  0  0  0  0  0
   -0.7834   -0.9600    1.3111 C   0  0  0  0  0  0
   -0.0411   -0.1420    0.2224 C   0  0  0  0  0  0
   -0.2594    1.2327    0.4828 O   0  0  0  0  0  0
    1.4898   -0.3768    0.2134 C   0  0  0  0  0  0
    2.3054   -0.2432    1.8721 S   0  0  0  0  0  0
    2.0184    1.0816    2.4435 O   0  0  0  0  0  0
    1.9921   -1.4498    2.6534 O   0  0  0  0  0  0
    4.0900   -0.3042    1.4138 C   0  0  0  0  0  0
    4.9444   -0.2478    2.6652 C   0  0  0  0  0  0
    5.3842   -1.4402    3.2773 C   0  0  0  0  0  0
    6.1757   -1.3875    4.4412 C   0  0  0  0  0  0
    6.5300   -0.1429    4.9969 C   0  0  0  0  0  0
    6.0919    1.0494    4.3888 C   0  0  0  0  0  0
    5.3005    0.9973    3.2248 C   0  0  0  0  0  0
   -0.6269   -0.4420   -1.1807 C   0  0  0  0  0  0
   -2.1677   -0.4162   -1.1962 C   0  0  0  0  0  0
   -4.4339   -1.2552   -2.7292 H   0  0  0  0  0  0
   -5.0536   -2.7223   -3.4377 H   0  0  0  0  0  0
   -5.6079   -2.2117   -1.8537 H   0  0  0  0  0  0
   -3.4758   -5.2469   -1.2677 H   0  0  0  0  0  0
   -5.0991   -4.5806   -1.1002 H   0  0  0  0  0  0
   -4.4687   -4.9660   -2.6849 H   0  0  0  0  0  0
   -1.4878   -3.5782   -2.1616 H   0  0  0  0  0  0
   -2.5084   -3.9945   -3.5215 H   0  0  0  0  0  0
   -2.0932   -2.3369   -3.2536 H   0  0  0  0  0  0
   -2.6754    0.1111    1.2881 H   0  0  0  0  0  0
   -2.7859   -1.4851    1.9426 H   0  0  0  0  0  0
   -0.5224   -0.6041    2.3082 H   0  0  0  0  0  0
   -0.4621   -2.0014    1.2630 H   0  0  0  0  0  0
    0.1746    1.7410   -0.1849 H   0  0  0  0  0  0
    1.7138   -1.3749   -0.1637 H   0  0  0  0  0  0
    1.9785    0.3293   -0.4585 H   0  0  0  0  0  0
    4.2783   -1.2233    0.8584 H   0  0  0  0  0  0
    4.3136    0.5381    0.7587 H   0  0  0  0  0  0
    5.1130   -2.3984    2.8587 H   0  0  0  0  0  0
    6.5100   -2.3023    4.9083 H   0  0  0  0  0  0
    7.1363   -0.1026    5.8898 H   0  0  0  0  0  0
    6.3615    2.0041    4.8157 H   0  0  0  0  0  0
    4.9637    1.9152    2.7653 H   0  0  0  0  0  0
   -0.2364    0.2638   -1.9149 H   0  0  0  0  0  0
   -0.2945   -1.4282   -1.5070 H   0  0  0  0  0  0
   -2.5260   -0.5801   -2.2032 H   0  0  0  0  0  0
   -2.5257    0.5830   -0.9446 H   0  0  0  0  0  0
  1  2  1  0  0  0
  1 25  1  0  0  0
  1 26  1  0  0  0
  1 27  1  0  0  0
  2  3  1  0  0  0
  2  4  1  0  0  0
  2  5  1  0  0  0
  3 28  1  0  0  0
  3 29  1  0  0  0
  3 30  1  0  0  0
  4 31  1  0  0  0
  4 32  1  0  0  0
  4 33  1  0  0  0
  5  6  2  0  0  0
  5  7  1  0  0  0
  7 24  1  0  0  0
  7  8  1  0  0  0
  8  9  1  0  0  0
  8 34  1  0  0  0
  8 35  1  0  0  0
  9 10  1  0  0  0
  9 36  1  0  0  0
  9 37  1  0  0  0
 10 11  1  0  0  0
 10 12  1  0  0  0
 10 23  1  0  0  0
 11 38  1  0  0  0
 12 13  1  0  0  0
 12 39  1  0  0  0
 12 40  1  0  0  0
 13 14  2  0  0  0
 13 15  2  0  0  0
 13 16  1  0  0  0
 16 17  1  0  0  0
 16 41  1  0  0  0
 16 42  1  0  0  0
 17 22  1  0  0  0
 17 18  2  0  0  0
 18 19  1  0  0  0
 18 43  1  0  0  0
 19 20  2  0  0  0
 19 44  1  0  0  0
 20 21  1  0  0  0
 20 45  1  0  0  0
 21 22  2  0  0  0
 21 46  1  0  0  0
 22 47  1  0  0  0
 23 24  1  0  0  0
 23 48  1  0  0  0
 23 49  1  0  0  0
 24 50  1  0  0  0
 24 51  1  0  0  0
M  END
$$$$
24
                    3D
 Schrodinger Suite 2021-2.
 50 54  0  0  1  0            999 V2000
   -2.9345   -2.3741   -0.7208 C   0  0  0  0  0  0
   -2.1684   -1.1580   -0.2289 C   0  0  0  0  0  0
   -2.8810    0.0218    0.0717 C   0  0  0  0  0  0
   -2.2033    1.1662    0.5271 C   0  0  0  0  0  0
   -0.8079    1.1342    0.6923 C   0  0  0  0  0  0
   -0.0827   -0.0436    0.4117 C   0  0  0  0  0  0
    1.2830   -0.0359    0.5564 O   0  0  0  0  0  0
    1.8247   -0.1515    1.7882 C   0  0  0  0  0  0
    1.2091   -0.3107    2.8432 O   0  0  0  0  0  0
    3.3483   -0.0697    1.7647 C   0  0  0  0  0  0
    3.8445    1.3393    1.3959 C   0  0  0  0  0  0
    5.3053    1.3842    1.3503 N   0  0  0  0  0  0
    6.0956    1.6639    2.4202 C   0  0  0  0  0  0
    5.7700    1.8058    3.5979 O   0  0  0  0  0  0
    7.4843    1.9142    1.8634 C   0  0  1  0  0  0
    8.9137    1.8907    2.4872 C   0  0  2  0  0  0
    9.6558    2.6994    1.4115 C   0  0  0  0  0  0
    9.5729    2.1994    0.1565 C   0  0  0  0  0  0
    8.8562    0.8468    0.0339 C   0  0  1  0  0  0
    9.6044   -0.1104    1.0009 C   0  0  1  0  0  0
   10.8647    0.1285    1.8171 C   0  0  0  0  0  0
    9.5226    0.4617    2.4397 C   0  0  1  0  0  0
    7.4593    0.8952    0.7377 C   0  0  2  0  0  0
    6.0437    1.1076    0.2439 C   0  0  0  0  0  0
    5.6618    0.9258   -0.9112 O   0  0  0  0  0  0
   -0.7595   -1.1932   -0.0703 C   0  0  0  0  0  0
    0.0132   -2.4628   -0.4062 C   0  0  0  0  0  0
   -4.0112   -2.2037   -0.6933 H   0  0  0  0  0  0
   -2.6591   -2.6081   -1.7493 H   0  0  0  0  0  0
   -2.7197   -3.2419   -0.0969 H   0  0  0  0  0  0
   -3.9538    0.0561   -0.0503 H   0  0  0  0  0  0
   -2.7535    2.0686    0.7495 H   0  0  0  0  0  0
   -0.2910    2.0167    1.0401 H   0  0  0  0  0  0
    3.7335   -0.3587    2.7430 H   0  0  0  0  0  0
    3.7239   -0.8005    1.0479 H   0  0  0  0  0  0
    3.4387    1.6473    0.4306 H   0  0  0  0  0  0
    3.4761    2.0680    2.1205 H   0  0  0  0  0  0
    7.3386    2.9305    1.4774 H   0  0  0  0  0  0
    8.9830    2.3451    3.4756 H   0  0  0  0  0  0
   10.1531    3.6256    1.6586 H   0  0  0  0  0  0
   10.0197    2.6687   -0.7074 H   0  0  0  0  0  0
    8.8335    0.4580   -0.9843 H   0  0  0  0  0  0
    9.3330   -1.1578    0.8778 H   0  0  0  0  0  0
   11.3725   -0.7550    2.1982 H   0  0  0  0  0  0
   11.5401    0.9280    1.5212 H   0  0  0  0  0  0
    9.1439   -0.2174    3.2012 H   0  0  0  0  0  0
    7.3130   -0.1137    1.1417 H   0  0  0  0  0  0
    1.0920   -2.3106   -0.4155 H   0  0  0  0  0  0
   -0.2075   -3.2393    0.3265 H   0  0  0  0  0  0
   -0.2649   -2.8329   -1.3931 H   0  0  0  0  0  0
  1  2  1  0  0  0
  1 28  1  0  0  0
  1 29  1  0  0  0
  1 30  1  0  0  0
  2 26  1  0  0  0
  2  3  2  0  0  0
  3  4  1  0  0  0
  3 31  1  0  0  0
  4  5  2  0  0  0
  4 32  1  0  0  0
  5  6  1  0  0  0
  5 33  1  0  0  0
  6  7  1  0  0  0
  6 26  2  0  0  0
  7  8  1  0  0  0
  8  9  2  0  0  0
  8 10  1  0  0  0
 10 11  1  0  0  0
 10 34  1  0  0  0
 10 35  1  0  0  0
 11 12  1  0  0  0
 11 36  1  0  0  0
 11 37  1  0  0  0
 12 24  1  0  0  0
 12 13  1  0  0  0
 13 14  2  0  0  0
 13 15  1  0  0  0
 15 23  1  0  0  0
 15 16  1  0  0  0
 15 38  1  0  0  0
 16 22  1  0  0  0
 16 17  1  0  0  0
 16 39  1  0  0  0
 17 18  2  0  0  0
 17 40  1  0  0  0
 18 19  1  0  0  0
 18 41  1  0  0  0
 19 20  1  0  0  0
 19 23  1  0  0  0
 19 42  1  0  0  0
 20 22  1  0  0  0
 20 21  1  0  0  0
 20 43  1  0  0  0
 21 22  1  0  0  0
 21 44  1  0  0  0
 21 45  1  0  0  0
 22 46  1  0  0  0
 23 24  1  0  0  0
 23 47  1  0  0  0
 24 25  2  0  0  0
 26 27  1  0  0  0
 27 48  1  0  0  0
 27 49  1  0  0  0
 27 50  1  0  0  0
M  END
$$$$
25
                    3D
 Schrodinger Suite 2021-2.
 41 43  0  0  1  0            999 V2000
   -4.9656    1.0058   -0.0864 C   0  0  0  0  0  0
   -4.1872    0.0798    0.6577 O   0  0  0  0  0  0
   -2.8198    0.0967    0.4848 C   0  0  0  0  0  0
   -2.0690   -0.8475    1.2120 C   0  0  0  0  0  0
   -0.6676   -0.9018    1.0940 C   0  0  0  0  0  0
    0.0204   -0.0018    0.2459 C   0  0  0  0  0  0
    1.4442   -0.0617    0.1024 N   0  0  0  0  0  0
    2.2982   -0.2433    1.1340 C   0  0  0  0  0  0
    1.9826   -0.3175    2.3215 O   0  0  0  0  0  0
    3.7569   -0.3361    0.7245 C   0  0  0  0  0  0
    3.8533    0.2368   -0.9728 S   0  0  0  0  0  0
    2.0645    0.0920   -1.2240 C   0  0  1  0  0  0
    1.7949   -1.0674   -2.1785 C   0  0  0  0  0  0
    1.6502   -2.3939   -1.7083 C   0  0  0  0  0  0
    1.4139   -3.4483   -2.6110 C   0  0  0  0  0  0
    1.3162   -3.1769   -3.9896 C   0  0  0  0  0  0
    1.0572   -4.5191   -5.1429 S   0  0  0  0  0  0
    2.7620   -5.0594   -5.5697 C   0  0  0  0  0  0
    0.3962   -5.6198   -4.4245 O   0  0  0  0  0  0
    0.4362   -3.9658   -6.3565 O   0  0  0  0  0  0
    1.4804   -1.8640   -4.4724 C   0  0  0  0  0  0
    1.7167   -0.8132   -3.5652 C   0  0  0  0  0  0
   -0.7333    0.9405   -0.4906 C   0  0  0  0  0  0
   -2.1354    0.9938   -0.3712 C   0  0  0  0  0  0
   -6.0200    0.8582    0.1464 H   0  0  0  0  0  0
   -4.7125    2.0356    0.1692 H   0  0  0  0  0  0
   -4.8419    0.8585   -1.1601 H   0  0  0  0  0  0
   -2.5742   -1.5430    1.8661 H   0  0  0  0  0  0
   -0.1302   -1.6534    1.6532 H   0  0  0  0  0  0
    4.3901    0.2726    1.3705 H   0  0  0  0  0  0
    4.0886   -1.3727    0.7858 H   0  0  0  0  0  0
    1.7424    1.0233   -1.6882 H   0  0  0  0  0  0
    1.7250   -2.6146   -0.6539 H   0  0  0  0  0  0
    1.3111   -4.4580   -2.2419 H   0  0  0  0  0  0
    2.7133   -5.8896   -6.2739 H   0  0  0  0  0  0
    3.3036   -4.2301   -6.0241 H   0  0  0  0  0  0
    3.2796   -5.3807   -4.6661 H   0  0  0  0  0  0
    1.4282   -1.6583   -5.5312 H   0  0  0  0  0  0
    1.8409    0.1924   -3.9394 H   0  0  0  0  0  0
   -0.2507    1.6480   -1.1469 H   0  0  0  0  0  0
   -2.6642    1.7368   -0.9485 H   0  0  0  0  0  0
  1  2  1  0  0  0
  1 25  1  0  0  0
  1 26  1  0  0  0
  1 27  1  0  0  0
  2  3  1  0  0  0
  3 24  1  0  0  0
  3  4  2  0  0  0
  4  5  1  0  0  0
  4 28  1  0  0  0
  5  6  2  0  0  0
  5 29  1  0  0  0
  6  7  1  0  0  0
  6 23  1  0  0  0
  7 12  1  0  0  0
  7  8  1  0  0  0
  8  9  2  0  0  0
  8 10  1  0  0  0
 10 11  1  0  0  0
 10 30  1  0  0  0
 10 31  1  0  0  0
 11 12  1  0  0  0
 12 13  1  0  0  0
 12 32  1  0  0  0
 13 22  1  0  0  0
 13 14  2  0  0  0
 14 15  1  0  0  0
 14 33  1  0  0  0
 15 16  2  0  0  0
 15 34  1  0  0  0
 16 17  1  0  0  0
 16 21  1  0  0  0
 17 18  1  0  0  0
 17 19  2  0  0  0
 17 20  2  0  0  0
 18 35  1  0  0  0
 18 36  1  0  0  0
 18 37  1  0  0  0
 21 22  2  0  0  0
 21 38  1  0  0  0
 22 39  1  0  0  0
 23 24  2  0  0  0
 23 40  1  0  0  0
 24 41  1  0  0  0
M  END
$$$$
26
                    3D
 Schrodinger Suite 2021-2.
 51 52  0  0  1  0            999 V2000
   -3.1646   -2.4662    3.8190 C   0  0  0  0  0  0
   -3.4913   -1.1427    3.1354 C   0  0  0  0  0  0
   -2.9193   -0.1134    3.4920 O   0  0  0  0  0  0
   -4.4071   -1.1866    2.1542 N   0  0  0  0  0  0
   -4.8722   -0.0500    1.3583 C   0  0  2  0  0  0
   -6.4049   -0.0732    1.2908 C   0  0  0  0  0  0
   -4.2431   -0.0603   -0.0512 C   0  0  0  0  0  0
   -2.7233   -0.0506   -0.0433 C   0  0  0  0  0  0
   -2.0285    1.1411    0.2505 C   0  0  0  0  0  0
   -0.6206    1.1532    0.2735 C   0  0  0  0  0  0
    0.1004   -0.0274    0.0010 C   0  0  0  0  0  0
    1.5532   -0.0128    0.0241 C   0  0  0  0  0  0
    2.7740    0.0161    0.0376 C   0  0  0  0  0  0
    4.2253    0.0691    0.0464 C   0  0  0  0  0  0
    4.8900    1.2551    0.4243 C   0  0  0  0  0  0
    6.2984    1.2186    0.4021 C   0  0  0  0  0  0
    6.9751    0.1082    0.0394 N   0  0  0  0  0  0
    6.2441   -0.9637   -0.3013 C   0  0  0  0  0  0
    6.8672   -2.1058   -0.6740 O   0  0  0  0  0  0
    8.2926   -2.1460   -0.6722 C   0  0  0  0  0  0
    8.7619   -3.5453   -1.1036 C   0  0  0  0  0  0
    8.3065   -4.6266   -0.1108 C   0  0  0  0  0  0
   10.2863   -3.5814   -1.2892 C   0  0  0  0  0  0
    4.9109   -1.0373   -0.3166 N   0  0  0  0  0  0
   -0.5918   -1.2196   -0.2951 C   0  0  0  0  0  0
   -2.0001   -1.2307   -0.3175 C   0  0  0  0  0  0
   -3.4902   -3.3160    3.2182 H   0  0  0  0  0  0
   -2.0895   -2.5552    3.9764 H   0  0  0  0  0  0
   -3.6592   -2.5201    4.7889 H   0  0  0  0  0  0
   -4.8163   -2.0839    1.9379 H   0  0  0  0  0  0
   -4.5859    0.8813    1.8502 H   0  0  0  0  0  0
   -6.7851    0.7801    0.7284 H   0  0  0  0  0  0
   -6.7681   -0.9798    0.8055 H   0  0  0  0  0  0
   -6.8427   -0.0303    2.2887 H   0  0  0  0  0  0
   -4.5902   -0.9335   -0.6053 H   0  0  0  0  0  0
   -4.5876    0.8084   -0.6138 H   0  0  0  0  0  0
   -2.5746    2.0478    0.4657 H   0  0  0  0  0  0
   -0.0999    2.0718    0.5027 H   0  0  0  0  0  0
    4.3541    2.1469    0.7157 H   0  0  0  0  0  0
    6.8837    2.0837    0.6764 H   0  0  0  0  0  0
    8.6796   -1.3997   -1.3683 H   0  0  0  0  0  0
    8.6835   -1.9122    0.3198 H   0  0  0  0  0  0
    8.3090   -3.7667   -2.0710 H   0  0  0  0  0  0
    8.7233   -4.4546    0.8819 H   0  0  0  0  0  0
    7.2204   -4.6463   -0.0162 H   0  0  0  0  0  0
    8.6224   -5.6177   -0.4375 H   0  0  0  0  0  0
   10.8047   -3.3541   -0.3572 H   0  0  0  0  0  0
   10.6191   -4.5641   -1.6243 H   0  0  0  0  0  0
   10.6087   -2.8543   -2.0349 H   0  0  0  0  0  0
   -0.0485   -2.1301   -0.5047 H   0  0  0  0  0  0
   -2.5228   -2.1494   -0.5391 H   0  0  0  0  0  0
  1  2  1  0  0  0
  1 27  1  0  0  0
  1 28  1  0  0  0
  1 29  1  0  0  0
  2  3  2  0  0  0
  2  4  1  0  0  0
  4  5  1  0  0  0
  4 30  1  0  0  0
  5  6  1  0  0  0
  5  7  1  0  0  0
  5 31  1  0  0  0
  6 32  1  0  0  0
  6 33  1  0  0  0
  6 34  1  0  0  0
  7  8  1  0  0  0
  7 35  1  0  0  0
  7 36  1  0  0  0
  8 26  1  0  0  0
  8  9  2  0  0  0
  9 10  1  0  0  0
  9 37  1  0  0  0
 10 11  2  0  0  0
 10 38  1  0  0  0
 11 12  1  0  0  0
 11 25  1  0  0  0
 12 13  3  0  0  0
 13 14  1  0  0  0
 14 24  1  0  0  0
 14 15  2  0  0  0
 15 16  1  0  0  0
 15 39  1  0  0  0
 16 17  2  0  0  0
 16 40  1  0  0  0
 17 18  1  0  0  0
 18 19  1  0  0  0
 18 24  2  0  0  0
 19 20  1  0  0  0
 20 21  1  0  0  0
 20 41  1  0  0  0
 20 42  1  0  0  0
 21 22  1  0  0  0
 21 23  1  0  0  0
 21 43  1  0  0  0
 22 44  1  0  0  0
 22 45  1  0  0  0
 22 46  1  0  0  0
 23 47  1  0  0  0
 23 48  1  0  0  0
 23 49  1  0  0  0
 25 26  2  0  0  0
 25 50  1  0  0  0
 26 51  1  0  0  0
M  END
$$$$
27
                    3D
 Schrodinger Suite 2021-2.
 49 53  0  0  1  0            999 V2000
   -4.9192    0.0044    1.3039 O   0  0  0  0  0  0
   -4.3714    0.0071    0.0036 C   0  0  0  0  0  0
   -2.8544    0.0044    0.0136 C   0  0  0  0  0  0
   -2.1479    1.2226    0.0222 C   0  0  0  0  0  0
   -0.7397    1.2275    0.0327 C   0  0  0  0  0  0
   -0.0044    0.0188    0.0353 C   0  0  0  0  0  0
    1.4642    0.0463    0.0469 C   0  0  0  0  0  0
    2.3063    1.1298    0.1290 C   0  0  0  0  0  0
    3.6883    0.7776    0.1120 C   0  0  0  0  0  0
    3.8966   -0.5732    0.0176 C   0  0  0  0  0  0
    5.1624   -1.2946   -0.0227 C   0  0  0  0  0  0
    6.4433   -0.8174    0.0100 C   0  0  0  0  0  0
    7.2324   -1.9473   -0.0445 N   0  0  0  0  0  0
    8.6915   -2.0097   -0.0797 C   0  0  1  0  0  0
    9.3026   -3.2060    0.7181 C   0  0  0  0  0  0
   10.2573   -3.9576   -0.1421 N   0  3  1  0  0  0
    9.5442   -4.5220   -1.3215 C   0  0  0  0  0  0
    8.9730   -3.3774   -2.2005 C   0  0  0  0  0  0
    9.2582   -2.0152   -1.5258 C   0  0  2  0  0  0
   10.7941   -1.8822   -1.4163 C   0  0  0  0  0  0
   11.3628   -3.0647   -0.5868 C   0  0  0  0  0  0
    6.4687   -3.0632   -0.1362 N   0  0  0  0  0  0
    5.2307   -2.6867   -0.1111 N   0  0  0  0  0  0
    2.3841   -1.4414   -0.0557 S   0  0  0  0  0  0
   -0.7285   -1.1983    0.0303 C   0  0  0  0  0  0
   -2.1367   -1.2088    0.0196 C   0  0  0  0  0  0
   -2.7946   -2.3931    0.0174 F   0  0  0  0  0  0
    9.0363   -1.0928    0.4014 H   0  0  0  0  0  0
   10.6485   -4.7181    0.3956 H   0  0  0  0  0  0
   -5.8616    0.0013    1.2329 H   0  0  0  0  0  0
   -4.7434   -0.8611   -0.5411 H   0  0  0  0  0  0
   -4.7331    0.8875   -0.5287 H   0  0  0  0  0  0
   -2.6850    2.1599    0.0224 H   0  0  0  0  0  0
   -0.2317    2.1798    0.0378 H   0  0  0  0  0  0
    1.9916    2.1600    0.2018 H   0  0  0  0  0  0
    4.4709    1.5196    0.1701 H   0  0  0  0  0  0
    6.8419    0.1849    0.0650 H   0  0  0  0  0  0
    9.8298   -2.8349    1.5979 H   0  0  0  0  0  0
    8.5501   -3.8966    1.0988 H   0  0  0  0  0  0
   10.2279   -5.1431   -1.9017 H   0  0  0  0  0  0
    8.7413   -5.1780   -0.9822 H   0  0  0  0  0  0
    9.4344   -3.4037   -3.1885 H   0  0  0  0  0  0
    7.9060   -3.5191   -2.3703 H   0  0  0  0  0  0
    8.8447   -1.1942   -2.1131 H   0  0  0  0  0  0
   11.2453   -1.8693   -2.4093 H   0  0  0  0  0  0
   11.0602   -0.9329   -0.9495 H   0  0  0  0  0  0
   11.9065   -2.6941    0.2833 H   0  0  0  0  0  0
   12.0778   -3.6369   -1.1793 H   0  0  0  0  0  0
   -0.2192   -2.1496    0.0365 H   0  0  0  0  0  0
  1  2  1  0  0  0
  1 30  1  0  0  0
  2  3  1  0  0  0
  2 31  1  0  0  0
  2 32  1  0  0  0
  3 26  1  0  0  0
  3  4  2  0  0  0
  4  5  1  0  0  0
  4 33  1  0  0  0
  5  6  2  0  0  0
  5 34  1  0  0  0
  6  7  1  0  0  0
  6 25  1  0  0  0
  7 24  1  0  0  0
  7  8  2  0  0  0
  8  9  1  0  0  0
  8 35  1  0  0  0
  9 10  2  0  0  0
  9 36  1  0  0  0
 10 11  1  0  0  0
 10 24  1  0  0  0
 11 23  1  0  0  0
 11 12  2  0  0  0
 12 13  1  0  0  0
 12 37  1  0  0  0
 13 14  1  0  0  0
 13 22  1  0  0  0
 14 28  1  0  0  0
 14 19  1  0  0  0
 14 15  1  0  0  0
 15 16  1  0  0  0
 15 38  1  0  0  0
 15 39  1  0  0  0
 16 29  1  0  0  0
 16 21  1  0  0  0
 16 17  1  0  0  0
 17 18  1  0  0  0
 17 40  1  0  0  0
 17 41  1  0  0  0
 18 19  1  0  0  0
 18 42  1  0  0  0
 18 43  1  0  0  0
 19 20  1  0  0  0
 19 44  1  0  0  0
 20 21  1  0  0  0
 20 45  1  0  0  0
 20 46  1  0  0  0
 21 47  1  0  0  0
 21 48  1  0  0  0
 22 23  2  0  0  0
 25 26  2  0  0  0
 25 49  1  0  0  0
 26 27  1  0  0  0
M  CHG  1  16   1
M  END
$$$$
28
                    3D
 Schrodinger Suite 2021-2.
 46 48  0  0  1  0            999 V2000
   -4.7599    1.5038   -0.3365 C   0  0  0  0  0  0
   -4.2761    0.1721   -0.4313 O   0  0  0  0  0  0
   -2.9231   -0.0393   -0.2749 C   0  0  0  0  0  0
   -2.4709   -1.3726   -0.3406 C   0  0  0  0  0  0
   -1.1062   -1.6811   -0.1843 C   0  0  0  0  0  0
   -0.1674   -0.6563    0.0548 C   0  0  0  0  0  0
    1.2898   -0.9967    0.1994 C   0  0  0  0  0  0
    1.8111   -1.6828   -0.6809 O   0  0  0  0  0  0
    1.9773   -0.5231    1.2766 N   0  0  0  0  0  0
    3.4491   -0.6563    1.3315 C   0  0  0  0  0  0
    4.1988   -0.1064    0.1474 C   0  0  0  0  0  0
    5.2405   -1.1670   -0.7712 S   0  0  0  0  0  0
    5.6717    0.1188   -1.8566 C   0  0  0  0  0  0
    5.0485    1.2881   -1.5174 C   0  0  0  0  0  0
    4.2057    1.1708   -0.3699 C   0  0  0  0  0  0
    3.4330    2.3261    0.1873 C   0  0  0  0  0  0
    1.3222   -0.1450    2.5537 C   0  0  2  0  0  0
    1.5865    1.3079    3.0007 C   0  0  0  0  0  0
    1.0422    1.4703    4.4241 C   0  0  0  0  0  0
    1.2617   -0.1567    5.2440 S   0  0  0  0  0  0
    2.4660   -0.1195    6.0874 O   0  0  0  0  0  0
   -0.0311   -0.5956    5.7907 O   0  0  0  0  0  0
    1.6358   -1.1032    3.7190 C   0  0  0  0  0  0
   -0.6092    0.6844    0.0952 C   0  0  0  0  0  0
   -1.9748    0.9919   -0.0601 C   0  0  0  0  0  0
   -5.8428    1.5031   -0.4604 H   0  0  0  0  0  0
   -4.5405    1.9388    0.6395 H   0  0  0  0  0  0
   -4.3390    2.1377   -1.1181 H   0  0  0  0  0  0
   -3.1794   -2.1696   -0.5123 H   0  0  0  0  0  0
   -0.7856   -2.7116   -0.2405 H   0  0  0  0  0  0
    3.8504   -0.1798    2.2247 H   0  0  0  0  0  0
    3.6812   -1.7161    1.4485 H   0  0  0  0  0  0
    6.3554   -0.0641   -2.6724 H   0  0  0  0  0  0
    5.1702    2.2200   -2.0501 H   0  0  0  0  0  0
    3.6023    3.2354   -0.3897 H   0  0  0  0  0  0
    2.3623    2.1296    0.1716 H   0  0  0  0  0  0
    3.7263    2.5370    1.2150 H   0  0  0  0  0  0
    0.2391   -0.2109    2.4652 H   0  0  0  0  0  0
    2.6560    1.5106    3.0244 H   0  0  0  0  0  0
    1.1382    2.0337    2.3225 H   0  0  0  0  0  0
    1.5511    2.2508    4.9901 H   0  0  0  0  0  0
   -0.0248    1.6941    4.4038 H   0  0  0  0  0  0
    1.0341   -2.0120    3.6887 H   0  0  0  0  0  0
    2.6845   -1.3926    3.7678 H   0  0  0  0  0  0
    0.0961    1.4872    0.2470 H   0  0  0  0  0  0
   -2.2692    2.0292   -0.0137 H   0  0  0  0  0  0
  1  2  1  0  0  0
  1 26  1  0  0  0
  1 27  1  0  0  0
  1 28  1  0  0  0
  2  3  1  0  0  0
  3 25  1  0  0  0
  3  4  2  0  0  0
  4  5  1  0  0  0
  4 29  1  0  0  0
  5  6  2  0  0  0
  5 30  1  0  0  0
  6  7  1  0  0  0
  6 24  1  0  0  0
  7  8  2  0  0  0
  7  9  1  0  0  0
  9 10  1  0  0  0
  9 17  1  0  0  0
 10 11  1  0  0  0
 10 31  1  0  0  0
 10 32  1  0  0  0
 11 15  2  0  0  0
 11 12  1  0  0  0
 12 13  1  0  0  0
 13 14  2  0  0  0
 13 33  1  0  0  0
 14 15  1  0  0  0
 14 34  1  0  0  0
 15 16  1  0  0  0
 16 35  1  0  0  0
 16 36  1  0  0  0
 16 37  1  0  0  0
 17 23  1  0  0  0
 17 18  1  0  0  0
 17 38  1  0  0  0
 18 19  1  0  0  0
 18 39  1  0  0  0
 18 40  1  0  0  0
 19 20  1  0  0  0
 19 41  1  0  0  0
 19 42  1  0  0  0
 20 21  2  0  0  0
 20 22  2  0  0  0
 20 23  1  0  0  0
 23 43  1  0  0  0
 23 44  1  0  0  0
 24 25  2  0  0  0
 24 45  1  0  0  0
 25 46  1  0  0  0
M  END
$$$$
29
                    3D
 Schrodinger Suite 2021-2.
 43 45  0  0  1  0            999 V2000
   -1.9065    1.4534   -0.3512 C   0  0  0  0  0  0
   -0.4100    1.2498   -0.2776 C   0  0  0  0  0  0
    0.5781    2.7299   -0.4209 S   0  0  0  0  0  0
    0.0859    0.0864   -0.1213 N   0  0  0  0  0  0
    1.5221   -0.1061   -0.0526 C   0  0  0  0  0  0
    1.8502   -1.6024    0.1198 C   0  0  1  0  0  0
    1.5733   -2.4540   -1.1069 C   0  0  0  0  0  0
    2.9138   -2.4830   -1.7628 C   0  0  0  0  0  0
    3.1531   -2.8897   -3.1712 C   0  0  0  0  0  0
    4.4428   -2.7870   -3.7404 C   0  0  0  0  0  0
    4.6715   -3.1847   -5.0718 C   0  0  0  0  0  0
    5.9237   -3.0849   -5.5801 F   0  0  0  0  0  0
    3.6073   -3.6886   -5.8584 C   0  0  0  0  0  0
    3.7903   -4.1062   -7.1860 N   0  0  0  0  0  0
    4.5531   -5.3400   -7.3188 C   0  0  0  0  0  0
    4.5297   -5.8140   -8.7824 C   0  0  0  0  0  0
    5.0088   -4.7737   -9.6307 O   0  0  0  0  0  0
    4.2014   -3.6019   -9.5496 C   0  0  0  0  0  0
    4.2186   -3.0625   -8.1088 C   0  0  0  0  0  0
    2.3200   -3.7911   -5.2885 C   0  0  0  0  0  0
    1.2877   -4.2753   -6.0212 F   0  0  0  0  0  0
    2.0941   -3.3964   -3.9561 C   0  0  0  0  0  0
    3.8207   -2.0909   -0.9713 N   0  0  0  0  0  0
    3.2554   -1.7584    0.2848 O   0  0  0  0  0  0
    1.3367   -1.9958    0.9982 H   0  0  0  0  0  0
   -2.4314    0.4972   -0.3651 H   0  0  0  0  0  0
   -2.2510    2.0227    0.5124 H   0  0  0  0  0  0
   -2.1697    2.0015   -1.2561 H   0  0  0  0  0  0
   -0.4397    3.5849   -0.5546 H   0  0  0  0  0  0
    2.0116    0.2768   -0.9504 H   0  0  0  0  0  0
    1.9348    0.4399    0.7980 H   0  0  0  0  0  0
    1.2845   -3.4689   -0.8318 H   0  0  0  0  0  0
    0.8076   -2.0289   -1.7563 H   0  0  0  0  0  0
    5.2735   -2.4068   -3.1635 H   0  0  0  0  0  0
    5.5828   -5.1751   -6.9997 H   0  0  0  0  0  0
    4.1316   -6.1086   -6.6698 H   0  0  0  0  0  0
    5.1629   -6.6929   -8.9034 H   0  0  0  0  0  0
    3.5208   -6.1041   -9.0807 H   0  0  0  0  0  0
    4.5930   -2.8519  -10.2367 H   0  0  0  0  0  0
    3.1824   -3.8267   -9.8691 H   0  0  0  0  0  0
    3.5589   -2.1983   -8.0231 H   0  0  0  0  0  0
    5.2254   -2.7277   -7.8591 H   0  0  0  0  0  0
    1.0981   -3.4947   -3.5503 H   0  0  0  0  0  0
  1  2  1  0  0  0
  1 26  1  0  0  0
  1 27  1  0  0  0
  1 28  1  0  0  0
  2  3  1  0  0  0
  2  4  2  0  0  0
  3 29  1  0  0  0
  4  5  1  0  0  0
  5  6  1  0  0  0
  5 30  1  0  0  0
  5 31  1  0  0  0
  6 25  1  0  0  0
  6 24  1  0  0  0
  6  7  1  0  0  0
  7  8  1  0  0  0
  7 32  1  0  0  0
  7 33  1  0  0  0
  8  9  1  0  0  0
  8 23  2  0  0  0
  9 22  1  0  0  0
  9 10  2  0  0  0
 10 11  1  0  0  0
 10 34  1  0  0  0
 11 12  1  0  0  0
 11 13  2  0  0  0
 13 14  1  0  0  0
 13 20  1  0  0  0
 14 19  1  0  0  0
 14 15  1  0  0  0
 15 16  1  0  0  0
 15 35  1  0  0  0
 15 36  1  0  0  0
 16 17  1  0  0  0
 16 37  1  0  0  0
 16 38  1  0  0  0
 17 18  1  0  0  0
 18 19  1  0  0  0
 18 39  1  0  0  0
 18 40  1  0  0  0
 19 41  1  0  0  0
 19 42  1  0  0  0
 20 21  1  0  0  0
 20 22  2  0  0  0
 22 43  1  0  0  0
 23 24  1  0  0  0
M  END
$$$$
30
                    3D
 Schrodinger Suite 2021-2.
 48 52  0  0  1  0            999 V2000
   -0.4277    1.0454   -1.1626 O   0  0  0  0  0  0
    0.1450    0.0979   -0.6234 C   0  0  0  0  0  0
   -0.5030   -0.9300   -0.0511 N   0  0  0  0  0  0
   -1.9537   -1.0799   -0.0018 C   0  0  0  0  0  0
   -2.5860   -1.5185   -1.3159 C   0  0  0  0  0  0
   -3.8624   -1.0306   -1.6685 C   0  0  0  0  0  0
   -4.4682   -1.4290   -2.8761 C   0  0  0  0  0  0
   -3.8029   -2.3226   -3.7369 C   0  0  0  0  0  0
   -2.5323   -2.8191   -3.3881 C   0  0  0  0  0  0
   -1.9262   -2.4209   -2.1805 C   0  0  0  0  0  0
    1.6427    0.0666   -0.5073 C   0  0  0  0  0  0
    2.3488   -1.1589   -0.4986 C   0  0  0  0  0  0
    3.7535   -1.1727   -0.4006 C   0  0  0  0  0  0
    4.4753    0.0389   -0.3193 C   0  0  0  0  0  0
    5.8958    0.0251   -0.2104 N   0  0  0  0  0  0
    6.7222    0.6782   -1.0487 C   0  0  0  0  0  0
    6.3963    1.3459   -2.0304 O   0  0  0  0  0  0
    8.1829    0.4774   -0.6422 C   0  0  1  0  0  0
    8.9464    1.7329   -0.1246 C   0  0  1  0  0  0
    8.1048    2.4883    0.8888 C   0  0  0  0  0  0
    8.0111    1.7244    1.9795 C   0  0  0  0  0  0
    8.7886    0.4480    1.7094 C   0  0  2  0  0  0
    9.9126    1.0313    0.8408 C   0  0  0  0  0  0
    8.0735   -0.4078    0.6212 C   0  0  1  0  0  0
    6.5639   -0.5978    0.7780 C   0  0  0  0  0  0
    6.0715   -1.2328    1.7109 O   0  0  0  0  0  0
    3.7727    1.2642   -0.3431 C   0  0  0  0  0  0
    2.3684    1.2766   -0.4407 C   0  0  0  0  0  0
    8.7336   -0.0311   -1.4349 H   0  0  0  0  0  0
    9.4265    2.3523   -0.8826 H   0  0  0  0  0  0
    9.1262   -0.0860    2.5978 H   0  0  0  0  0  0
    8.5668   -1.3697    0.4747 H   0  0  0  0  0  0
    0.0479   -1.6523    0.3897 H   0  0  0  0  0  0
   -2.1913   -1.8269    0.7556 H   0  0  0  0  0  0
   -2.4041   -0.1450    0.3362 H   0  0  0  0  0  0
   -4.3816   -0.3459   -1.0140 H   0  0  0  0  0  0
   -5.4440   -1.0496   -3.1412 H   0  0  0  0  0  0
   -4.2676   -2.6282   -4.6629 H   0  0  0  0  0  0
   -2.0223   -3.5065   -4.0466 H   0  0  0  0  0  0
   -0.9531   -2.8131   -1.9241 H   0  0  0  0  0  0
    1.8230   -2.1000   -0.5688 H   0  0  0  0  0  0
    4.2750   -2.1188   -0.3918 H   0  0  0  0  0  0
    7.6453    3.4498    0.7134 H   0  0  0  0  0  0
    7.4589    1.9293    2.8845 H   0  0  0  0  0  0
   10.5427    0.2762    0.3661 H   0  0  0  0  0  0
   10.5549    1.7281    1.3838 H   0  0  0  0  0  0
    4.3073    2.2010   -0.2819 H   0  0  0  0  0  0
    1.8521    2.2256   -0.4567 H   0  0  0  0  0  0
  1  2  2  0  0  0
  2  3  1  0  0  0
  2 11  1  0  0  0
  3  4  1  0  0  0
  3 33  1  0  0  0
  4  5  1  0  0  0
  4 34  1  0  0  0
  4 35  1  0  0  0
  5 10  1  0  0  0
  5  6  2  0  0  0
  6  7  1  0  0  0
  6 36  1  0  0  0
  7  8  2  0  0  0
  7 37  1  0  0  0
  8  9  1  0  0  0
  8 38  1  0  0  0
  9 10  2  0  0  0
  9 39  1  0  0  0
 10 40  1  0  0  0
 11 28  1  0  0  0
 11 12  2  0  0  0
 12 13  1  0  0  0
 12 41  1  0  0  0
 13 14  2  0  0  0
 13 42  1  0  0  0
 14 15  1  0  0  0
 14 27  1  0  0  0
 15 25  1  0  0  0
 15 16  1  0  0  0
 16 17  2  0  0  0
 16 18  1  0  0  0
 18 29  1  0  0  0
 18 24  1  0  0  0
 18 19  1  0  0  0
 19 30  1  0  0  0
 19 23  1  0  0  0
 19 20  1  0  0  0
 20 21  2  0  0  0
 20 43  1  0  0  0
 21 22  1  0  0  0
 21 44  1  0  0  0
 22 31  1  0  0  0
 22 23  1  0  0  0
 22 24  1  0  0  0
 23 45  1  0  0  0
 23 46  1  0  0  0
 24 32  1  0  0  0
 24 25  1  0  0  0
 25 26  2  0  0  0
 27 28  2  0  0  0
 27 47  1  0  0  0
 28 48  1  0  0  0
M  END
$$$$
31
                    3D
 Schrodinger Suite 2021-2.
 38 39  0  0  1  0            999 V2000
   -0.6200   -0.9235   -1.1913 C   0  0  0  0  0  0
   -0.1764   -0.0265   -0.0260 C   0  0  0  0  0  0
   -0.8429    1.3551   -0.1278 C   0  0  0  0  0  0
    1.3743    0.0216    0.0566 C   0  0  0  0  0  0
    1.9356    0.8908    1.1160 N   0  0  0  0  0  0
    1.7585    0.5520    2.4255 C   0  0  0  0  0  0
    1.0462   -0.3896    2.7735 O   0  0  0  0  0  0
    2.4197    1.3221    3.5034 C   0  0  0  0  0  0
    3.7324    1.6656    3.7207 C   0  0  0  0  0  0
    3.7823    2.3619    4.9606 C   0  0  0  0  0  0
    2.4966    2.3591    5.4099 C   0  0  0  0  0  0
    1.9131    3.1330    7.0467 Br  0  0  0  0  0  0
    1.6522    1.7239    4.5601 O   0  0  0  0  0  0
    2.7673    2.0262    0.6457 C   0  0  2  0  0  0
    2.0842    2.9833   -0.3572 C   0  0  0  0  0  0
    3.1523    3.9464   -0.8869 C   0  0  0  0  0  0
    4.7126    2.9840   -0.9492 S   0  0  0  0  0  0
    4.9438    2.5154   -2.3238 O   0  0  0  0  0  0
    5.7550    3.7147   -0.2129 O   0  0  0  0  0  0
    4.1199    1.5760    0.0644 C   0  0  0  0  0  0
   -0.2955   -0.5176   -2.1500 H   0  0  0  0  0  0
   -0.2036   -1.9267   -1.0962 H   0  0  0  0  0  0
   -1.7056   -1.0211   -1.2225 H   0  0  0  0  0  0
   -0.5619   -0.4943    0.8788 H   0  0  0  0  0  0
   -0.5589    1.8705   -1.0449 H   0  0  0  0  0  0
   -1.9291    1.2612   -0.1322 H   0  0  0  0  0  0
   -0.5810    1.9907    0.7180 H   0  0  0  0  0  0
    1.7505   -0.9901    0.2197 H   0  0  0  0  0  0
    1.7700    0.2952   -0.9204 H   0  0  0  0  0  0
    4.5632    1.4396    3.0703 H   0  0  0  0  0  0
    4.6396    2.7909    5.4580 H   0  0  0  0  0  0
    3.0003    2.6927    1.4728 H   0  0  0  0  0  0
    1.6840    2.4401   -1.2108 H   0  0  0  0  0  0
    1.2552    3.5253    0.0983 H   0  0  0  0  0  0
    2.9166    4.3492   -1.8721 H   0  0  0  0  0  0
    3.2971    4.7775   -0.1961 H   0  0  0  0  0  0
    4.8588    1.3318    0.8260 H   0  0  0  0  0  0
    4.0179    0.7153   -0.5962 H   0  0  0  0  0  0
  1  2  1  0  0  0
  1 21  1  0  0  0
  1 22  1  0  0  0
  1 23  1  0  0  0
  2  3  1  0  0  0
  2  4  1  0  0  0
  2 24  1  0  0  0
  3 25  1  0  0  0
  3 26  1  0  0  0
  3 27  1  0  0  0
  4  5  1  0  0  0
  4 28  1  0  0  0
  4 29  1  0  0  0
  5  6  1  0  0  0
  5 14  1  0  0  0
  6  7  2  0  0  0
  6  8  1  0  0  0
  8 13  1  0  0  0
  8  9  2  0  0  0
  9 10  1  0  0  0
  9 30  1  0  0  0
 10 11  2  0  0  0
 10 31  1  0  0  0
 11 12  1  0  0  0
 11 13  1  0  0  0
 14 20  1  0  0  0
 14 15  1  0  0  0
 14 32  1  0  0  0
 15 16  1  0  0  0
 15 33  1  0  0  0
 15 34  1  0  0  0
 16 17  1  0  0  0
 16 35  1  0  0  0
 16 36  1  0  0  0
 17 18  2  0  0  0
 17 19  2  0  0  0
 17 20  1  0  0  0
 20 37  1  0  0  0
 20 38  1  0  0  0
M  END
$$$$
32
                    3D
 Schrodinger Suite 2021-2.
 53 54  0  0  1  0            999 V2000
   -1.0395    6.9651   -1.4613 C   0  0  0  0  0  0
   -1.2076    6.2038   -0.5215 C   0  0  0  0  0  0
   -1.4247    5.2800    0.6050 C   0  0  0  0  0  0
   -1.2246    3.8830    0.2363 N   0  0  0  0  0  0
   -2.1593    3.0675   -0.2807 C   0  0  0  0  0  0
   -3.3123    3.4380   -0.5079 O   0  0  0  0  0  0
   -1.6375    1.7291   -0.5280 C   0  0  0  0  0  0
   -2.4518    0.7702   -1.0175 C   0  0  0  0  0  0
   -1.9825   -0.6449   -1.3253 C   0  0  1  0  0  0
   -2.6196   -1.2513   -2.6202 C   0  0  0  0  0  0
   -4.1492   -1.3940   -2.4491 C   0  0  0  0  0  0
   -2.0616   -2.6676   -2.8806 C   0  0  0  0  0  0
   -2.3456   -0.3744   -3.8620 C   0  0  0  0  0  0
   -0.4373   -0.6824   -1.3019 C   0  0  0  0  0  0
    0.0796    0.1169   -0.0950 C   0  0  1  0  0  0
    1.4651    0.0132   -0.0897 O   0  0  0  0  0  0
    2.0760    0.5662    1.0673 C   0  0  0  0  0  0
    3.5860    0.4368    1.0169 C   0  0  0  0  0  0
    4.2873    0.7959   -0.1530 C   0  0  0  0  0  0
    5.6906    0.6844   -0.2011 C   0  0  0  0  0  0
    6.4039    0.2180    0.9230 C   0  0  0  0  0  0
    7.9141    0.0881    0.8732 C   0  0  0  0  0  0
    8.5642    0.9427    1.7892 O   0  0  0  0  0  0
    5.7033   -0.1319    2.0961 C   0  0  0  0  0  0
    4.3002   -0.0192    2.1446 C   0  0  0  0  0  0
   -0.3276    1.4509   -0.2069 O   0  0  0  0  0  0
   -2.3270   -1.2469   -0.4830 H   0  0  0  0  0  0
   -0.3171   -0.2967    0.8347 H   0  0  0  0  0  0
   -0.8961    7.6294   -2.2839 H   0  0  0  0  0  0
   -0.7178    5.5404    1.3928 H   0  0  0  0  0  0
   -2.4263    5.4440    1.0053 H   0  0  0  0  0  0
   -0.3022    3.5002    0.3864 H   0  0  0  0  0  0
   -3.4878    0.9947   -1.2203 H   0  0  0  0  0  0
   -4.6525   -0.4307   -2.3781 H   0  0  0  0  0  0
   -4.5954   -1.9137   -3.2979 H   0  0  0  0  0  0
   -4.3984   -1.9647   -1.5541 H   0  0  0  0  0  0
   -1.0002   -2.6503   -3.1279 H   0  0  0  0  0  0
   -2.1899   -3.3122   -2.0102 H   0  0  0  0  0  0
   -2.5694   -3.1470   -3.7184 H   0  0  0  0  0  0
   -1.2805   -0.2865   -4.0737 H   0  0  0  0  0  0
   -2.8120   -0.7994   -4.7514 H   0  0  0  0  0  0
   -2.7426    0.6341   -3.7439 H   0  0  0  0  0  0
   -0.0686   -1.7050   -1.2188 H   0  0  0  0  0  0
   -0.0070   -0.2463   -2.2035 H   0  0  0  0  0  0
    1.8272    1.6244    1.1587 H   0  0  0  0  0  0
    1.6967    0.0653    1.9595 H   0  0  0  0  0  0
    3.7499    1.1562   -1.0182 H   0  0  0  0  0  0
    6.2154    0.9589   -1.1043 H   0  0  0  0  0  0
    8.1910   -0.9435    1.0932 H   0  0  0  0  0  0
    8.2800    0.3074   -0.1304 H   0  0  0  0  0  0
    9.4970    0.8145    1.7089 H   0  0  0  0  0  0
    6.2423   -0.4868    2.9624 H   0  0  0  0  0  0
    3.7757   -0.2882    3.0498 H   0  0  0  0  0  0
  1  2  3  0  0  0
  1 29  1  0  0  0
  2  3  1  0  0  0
  3  4  1  0  0  0
  3 30  1  0  0  0
  3 31  1  0  0  0
  4  5  1  0  0  0
  4 32  1  0  0  0
  5  6  2  0  0  0
  5  7  1  0  0  0
  7 26  1  0  0  0
  7  8  2  0  0  0
  8  9  1  0  0  0
  8 33  1  0  0  0
  9 27  1  0  0  0
  9 10  1  0  0  0
  9 14  1  0  0  0
 10 11  1  0  0  0
 10 12  1  0  0  0
 10 13  1  0  0  0
 11 34  1  0  0  0
 11 35  1  0  0  0
 11 36  1  0  0  0
 12 37  1  0  0  0
 12 38  1  0  0  0
 12 39  1  0  0  0
 13 40  1  0  0  0
 13 41  1  0  0  0
 13 42  1  0  0  0
 14 15  1  0  0  0
 14 43  1  0  0  0
 14 44  1  0  0  0
 15 28  1  0  0  0
 15 16  1  0  0  0
 15 26  1  0  0  0
 16 17  1  0  0  0
 17 18  1  0  0  0
 17 45  1  0  0  0
 17 46  1  0  0  0
 18 25  1  0  0  0
 18 19  2  0  0  0
 19 20  1  0  0  0
 19 47  1  0  0  0
 20 21  2  0  0  0
 20 48  1  0  0  0
 21 22  1  0  0  0
 21 24  1  0  0  0
 22 23  1  0  0  0
 22 49  1  0  0  0
 22 50  1  0  0  0
 23 51  1  0  0  0
 24 25  2  0  0  0
 24 52  1  0  0  0
 25 53  1  0  0  0
M  END
$$$$
33
                    3D
 Schrodinger Suite 2021-2.
 43 45  0  0  1  0            999 V2000
   -1.2964   -3.0702   -4.2239 N   0  0  0  0  0  0
   -1.6355   -3.8878   -3.2225 C   0  0  0  0  0  0
   -2.0857   -5.0133   -3.4253 O   0  0  0  0  0  0
   -1.4406   -3.3794   -1.7873 C   0  0  0  0  0  0
   -2.2526   -2.0926   -1.5030 C   0  0  0  0  0  0
   -1.9614   -1.5591   -0.0879 C   0  0  0  0  0  0
   -0.5144   -1.3470    0.0460 N   0  0  0  0  0  0
    0.0441   -0.1123    0.0778 C   0  0  0  0  0  0
   -0.6364    0.9149    0.0789 O   0  0  0  0  0  0
    1.5776    0.0102    0.1025 C   0  0  0  0  0  0
    2.0866    1.4635    0.0641 C   0  0  0  0  0  0
    3.5366    1.5157    0.0542 N   0  0  0  0  0  0
    4.3331    1.5985    1.1888 C   0  0  0  0  0  0
    5.6548    1.6263    0.8325 C   0  0  0  0  0  0
    5.6932    1.5570   -0.5981 C   0  0  0  0  0  0
    6.7272    1.5458   -1.5634 C   0  0  0  0  0  0
    6.4392    1.4652   -2.9405 C   0  0  0  0  0  0
    7.8596    1.4543   -4.2068 Br  0  0  0  0  0  0
    5.1047    1.3918   -3.3823 C   0  0  0  0  0  0
    4.0551    1.4003   -2.4459 C   0  0  0  0  0  0
    4.3495    1.4848   -1.0708 C   0  0  0  0  0  0
    0.2232   -2.6153   -0.0255 C   0  0  0  0  0  0
    0.0560   -3.2039   -1.4378 C   0  0  0  0  0  0
   -1.4112   -3.3752   -5.1796 H   0  0  0  0  0  0
   -0.9275   -2.1522   -4.0228 H   0  0  0  0  0  0
   -1.8327   -4.1534   -1.1250 H   0  0  0  0  0  0
   -2.0070   -1.3164   -2.2295 H   0  0  0  0  0  0
   -3.3198   -2.2904   -1.6103 H   0  0  0  0  0  0
   -2.5420   -0.6538    0.0946 H   0  0  0  0  0  0
   -2.2946   -2.2786    0.6616 H   0  0  0  0  0  0
    1.9536   -0.4762    1.0033 H   0  0  0  0  0  0
    1.9844   -0.5310   -0.7528 H   0  0  0  0  0  0
    1.7143    1.9833   -0.8200 H   0  0  0  0  0  0
    1.7275    2.0198    0.9313 H   0  0  0  0  0  0
    3.8889    1.6307    2.1730 H   0  0  0  0  0  0
    6.5083    1.6878    1.4914 H   0  0  0  0  0  0
    7.7555    1.6000   -1.2378 H   0  0  0  0  0  0
    4.8862    1.3295   -4.4383 H   0  0  0  0  0  0
    3.0306    1.3431   -2.7822 H   0  0  0  0  0  0
    1.2806   -2.5241    0.2177 H   0  0  0  0  0  0
   -0.1816   -3.3068    0.7150 H   0  0  0  0  0  0
    0.5718   -4.1629   -1.5002 H   0  0  0  0  0  0
    0.5415   -2.5437   -2.1584 H   0  0  0  0  0  0
  1  2  1  0  0  0
  1 24  1  0  0  0
  1 25  1  0  0  0
  2  3  2  0  0  0
  2  4  1  0  0  0
  4 23  1  0  0  0
  4  5  1  0  0  0
  4 26  1  0  0  0
  5  6  1  0  0  0
  5 27  1  0  0  0
  5 28  1  0  0  0
  6  7  1  0  0  0
  6 29  1  0  0  0
  6 30  1  0  0  0
  7  8  1  0  0  0
  7 22  1  0  0  0
  8  9  2  0  0  0
  8 10  1  0  0  0
 10 11  1  0  0  0
 10 31  1  0  0  0
 10 32  1  0  0  0
 11 12  1  0  0  0
 11 33  1  0  0  0
 11 34  1  0  0  0
 12 21  1  0  0  0
 12 13  1  0  0  0
 13 14  2  0  0  0
 13 35  1  0  0  0
 14 15  1  0  0  0
 14 36  1  0  0  0
 15 21  2  0  0  0
 15 16  1  0  0  0
 16 17  2  0  0  0
 16 37  1  0  0  0
 17 18  1  0  0  0
 17 19  1  0  0  0
 19 20  2  0  0  0
 19 38  1  0  0  0
 20 21  1  0  0  0
 20 39  1  0  0  0
 22 23  1  0  0  0
 22 40  1  0  0  0
 22 41  1  0  0  0
 23 42  1  0  0  0
 23 43  1  0  0  0
M  END
$$$$
34
                    3D
 Schrodinger Suite 2021-2.
 54 57  0  0  1  0            999 V2000
   -7.5299    3.2021    0.5661 C   0  0  0  0  0  0
   -6.9291    3.2881    1.9616 C   0  0  0  0  0  0
   -7.7711    3.0723    3.0739 C   0  0  0  0  0  0
   -7.2660    3.1679    4.3839 C   0  0  0  0  0  0
   -5.9125    3.4867    4.5932 C   0  0  0  0  0  0
   -5.0634    3.7010    3.4918 C   0  0  0  0  0  0
   -5.5559    3.5897    2.1733 C   0  0  0  0  0  0
   -4.6096    3.8275    1.0306 C   0  0  0  0  0  0
   -4.2050    4.9733    0.8324 O   0  0  0  0  0  0
   -4.2583    2.7682    0.2592 N   0  0  0  0  0  0
   -3.4136    2.9164   -0.9320 C   0  0  0  0  0  0
   -2.0221    2.3193   -0.6468 C   0  0  0  0  0  0
   -2.1102    0.8440   -0.1817 C   0  0  0  0  0  0
   -2.3732   -0.1329   -1.3372 C   0  0  0  0  0  0
   -0.9907   -0.3862   -1.8947 C   0  0  0  0  0  0
   -0.1202   -0.3483   -0.6348 C   0  0  1  0  0  0
    1.2620    0.2678   -0.8715 C   0  0  0  0  0  0
    1.3645    1.4351   -1.2504 O   0  0  0  0  0  0
    2.3166   -0.5291   -0.6417 N   0  0  0  0  0  0
    3.7164   -0.1515   -0.8167 C   0  0  0  0  0  0
    4.3526   -0.4645   -2.1645 C   0  0  0  0  0  0
    3.6081   -0.3152   -3.4744 C   0  0  0  0  0  0
    3.9630   -1.6900   -2.9623 C   0  0  0  0  0  0
   -0.8270    0.4573    0.3088 O   0  0  0  0  0  0
   -3.1405    0.7047    0.9611 C   0  0  0  0  0  0
   -4.4875    1.3538    0.5919 C   0  0  0  0  0  0
   -8.6194    3.1965    0.6057 H   0  0  0  0  0  0
   -7.2299    4.0555   -0.0428 H   0  0  0  0  0  0
   -7.2086    2.2886    0.0663 H   0  0  0  0  0  0
   -8.8151    2.8369    2.9268 H   0  0  0  0  0  0
   -7.9188    3.0031    5.2283 H   0  0  0  0  0  0
   -5.5253    3.5671    5.5982 H   0  0  0  0  0  0
   -4.0246    3.9435    3.6641 H   0  0  0  0  0  0
   -3.8862    2.4062   -1.7716 H   0  0  0  0  0  0
   -3.3103    3.9558   -1.2458 H   0  0  0  0  0  0
   -1.3868    2.4157   -1.5271 H   0  0  0  0  0  0
   -1.5425    2.9120    0.1336 H   0  0  0  0  0  0
   -2.7803   -1.0710   -0.9574 H   0  0  0  0  0  0
   -3.0681    0.2463   -2.0863 H   0  0  0  0  0  0
   -0.9251   -1.3412   -2.4168 H   0  0  0  0  0  0
   -0.7222    0.3985   -2.6035 H   0  0  0  0  0  0
   -0.0310   -1.3513   -0.2142 H   0  0  0  0  0  0
    2.1361   -1.4723   -0.3293 H   0  0  0  0  0  0
    3.8499    0.9116   -0.6102 H   0  0  0  0  0  0
    4.2883   -0.6747   -0.0502 H   0  0  0  0  0  0
    5.4076   -0.2000   -2.2013 H   0  0  0  0  0  0
    2.5594   -0.0285   -3.4496 H   0  0  0  0  0  0
    4.1683    0.0609   -4.3279 H   0  0  0  0  0  0
    4.7582   -2.2264   -3.4759 H   0  0  0  0  0  0
    3.1495   -2.3105   -2.5921 H   0  0  0  0  0  0
   -3.2838   -0.3438    1.2243 H   0  0  0  0  0  0
   -2.7520    1.1890    1.8583 H   0  0  0  0  0  0
   -5.1895    1.2039    1.4107 H   0  0  0  0  0  0
   -4.9283    0.8483   -0.2683 H   0  0  0  0  0  0
  1  2  1  0  0  0
  1 27  1  0  0  0
  1 28  1  0  0  0
  1 29  1  0  0  0
  2  7  1  0  0  0
  2  3  2  0  0  0
  3  4  1  0  0  0
  3 30  1  0  0  0
  4  5  2  0  0  0
  4 31  1  0  0  0
  5  6  1  0  0  0
  5 32  1  0  0  0
  6  7  2  0  0  0
  6 33  1  0  0  0
  7  8  1  0  0  0
  8  9  2  0  0  0
  8 10  1  0  0  0
 10 26  1  0  0  0
 10 11  1  0  0  0
 11 12  1  0  0  0
 11 34  1  0  0  0
 11 35  1  0  0  0
 12 13  1  0  0  0
 12 36  1  0  0  0
 12 37  1  0  0  0
 13 24  1  0  0  0
 13 14  1  0  0  0
 13 25  1  0  0  0
 14 15  1  0  0  0
 14 38  1  0  0  0
 14 39  1  0  0  0
 15 16  1  0  0  0
 15 40  1  0  0  0
 15 41  1  0  0  0
 16 17  1  0  0  0
 16 24  1  0  0  0
 16 42  1  0  0  0
 17 18  2  0  0  0
 17 19  1  0  0  0
 19 20  1  0  0  0
 19 43  1  0  0  0
 20 21  1  0  0  0
 20 44  1  0  0  0
 20 45  1  0  0  0
 21 23  1  0  0  0
 21 22  1  0  0  0
 21 46  1  0  0  0
 22 23  1  0  0  0
 22 47  1  0  0  0
 22 48  1  0  0  0
 23 49  1  0  0  0
 23 50  1  0  0  0
 25 26  1  0  0  0
 25 51  1  0  0  0
 25 52  1  0  0  0
 26 53  1  0  0  0
 26 54  1  0  0  0
M  END
$$$$
35
                    3D
 Schrodinger Suite 2021-2.
 51 53  0  0  1  0            999 V2000
   -8.3407   -0.1646    0.1421 C   0  0  0  0  0  0
   -6.8403   -0.3674    0.0951 C   0  0  0  0  0  0
   -6.3012   -1.6697    0.0013 C   0  0  0  0  0  0
   -4.9060   -1.8499   -0.0432 C   0  0  0  0  0  0
   -4.2296   -3.4335   -0.1582 Cl  0  0  0  0  0  0
   -4.0773   -0.7160    0.0080 C   0  0  0  0  0  0
   -2.7010   -0.6778   -0.0236 O   0  0  0  0  0  0
   -2.3207    0.6428    0.0522 C   0  0  0  0  0  0
   -0.8721    0.9484    0.0358 C   0  0  0  0  0  0
   -0.4683    2.1046    0.1568 O   0  0  0  0  0  0
   -0.0499   -0.1002   -0.1353 N   0  0  0  0  0  0
    1.4104   -0.0426   -0.1904 C   0  0  0  0  0  0
    2.0014   -0.2475   -1.6194 C   0  0  0  0  0  0
    1.5594   -1.6201   -2.1830 C   0  0  0  0  0  0
    1.4237    0.8542   -2.5479 C   0  0  0  0  0  0
    3.5066   -0.1460   -1.5366 N   0  3  0  0  0  0
    4.1838   -1.2618   -0.8141 C   0  0  0  0  0  0
    5.6778   -0.9602   -0.6211 C   0  0  0  0  0  0
    6.2841   -0.7733   -1.8907 O   0  0  0  0  0  0
    5.7274    0.3393   -2.5743 C   0  0  0  0  0  0
    4.2239    0.1168   -2.8183 C   0  0  0  0  0  0
   -3.4281    1.4662    0.1313 C   0  0  0  0  0  0
   -3.4396    2.9628    0.2250 C   0  0  0  0  0  0
   -4.5770    0.6035    0.1032 C   0  0  0  0  0  0
   -5.9833    0.7551    0.1450 C   0  0  0  0  0  0
    3.6740    0.6787   -0.9777 H   0  0  0  0  0  0
   -8.8719   -1.1166    0.1675 H   0  0  0  0  0  0
   -8.6175    0.4031    1.0309 H   0  0  0  0  0  0
   -8.6733    0.3885   -0.7366 H   0  0  0  0  0  0
   -6.9541   -2.5297   -0.0369 H   0  0  0  0  0  0
   -0.4738   -1.0120   -0.2310 H   0  0  0  0  0  0
    1.7775    0.8937    0.2338 H   0  0  0  0  0  0
    1.7446   -0.8234    0.4897 H   0  0  0  0  0  0
    0.4805   -1.6566   -2.3381 H   0  0  0  0  0  0
    2.0240   -1.8299   -3.1465 H   0  0  0  0  0  0
    1.8044   -2.4406   -1.5085 H   0  0  0  0  0  0
    0.3344    0.8506   -2.5623 H   0  0  0  0  0  0
    1.7403    1.8494   -2.2332 H   0  0  0  0  0  0
    1.7168    0.7153   -3.5883 H   0  0  0  0  0  0
    3.7458   -1.4352    0.1660 H   0  0  0  0  0  0
    4.0833   -2.1902   -1.3772 H   0  0  0  0  0  0
    5.8236   -0.0789    0.0059 H   0  0  0  0  0  0
    6.1674   -1.7941   -0.1177 H   0  0  0  0  0  0
    5.8962    1.2528   -2.0016 H   0  0  0  0  0  0
    6.2467    0.4624   -3.5249 H   0  0  0  0  0  0
    4.0771   -0.7166   -3.5061 H   0  0  0  0  0  0
    3.8541    1.0149   -3.3096 H   0  0  0  0  0  0
   -4.4555    3.3532    0.2810 H   0  0  0  0  0  0
   -2.9071    3.3060    1.1119 H   0  0  0  0  0  0
   -2.9625    3.4151   -0.6447 H   0  0  0  0  0  0
   -6.4053    1.7467    0.2165 H   0  0  0  0  0  0
  1  2  1  0  0  0
  1 27  1  0  0  0
  1 28  1  0  0  0
  1 29  1  0  0  0
  2 25  1  0  0  0
  2  3  2  0  0  0
  3  4  1  0  0  0
  3 30  1  0  0  0
  4  5  1  0  0  0
  4  6  2  0  0  0
  6 24  1  0  0  0
  6  7  1  0  0  0
  7  8  1  0  0  0
  8  9  1  0  0  0
  8 22  2  0  0  0
  9 10  2  0  0  0
  9 11  1  0  0  0
 11 12  1  0  0  0
 11 31  1  0  0  0
 12 13  1  0  0  0
 12 32  1  0  0  0
 12 33  1  0  0  0
 13 14  1  0  0  0
 13 15  1  0  0  0
 13 16  1  0  0  0
 14 34  1  0  0  0
 14 35  1  0  0  0
 14 36  1  0  0  0
 15 37  1  0  0  0
 15 38  1  0  0  0
 15 39  1  0  0  0
 16 26  1  0  0  0
 16 21  1  0  0  0
 16 17  1  0  0  0
 17 18  1  0  0  0
 17 40  1  0  0  0
 17 41  1  0  0  0
 18 19  1  0  0  0
 18 42  1  0  0  0
 18 43  1  0  0  0
 19 20  1  0  0  0
 20 21  1  0  0  0
 20 44  1  0  0  0
 20 45  1  0  0  0
 21 46  1  0  0  0
 21 47  1  0  0  0
 22 23  1  0  0  0
 22 24  1  0  0  0
 23 48  1  0  0  0
 23 49  1  0  0  0
 23 50  1  0  0  0
 24 25  2  0  0  0
 25 51  1  0  0  0
M  CHG  1  16   1
M  END
$$$$
36
                    3D
 Schrodinger Suite 2021-2.
 51 54  0  0  1  0            999 V2000
   -0.8858    0.5996   -0.1671 O   0  0  0  0  0  0
   -0.1225   -0.3634   -0.0836 C   0  0  0  0  0  0
   -0.5516   -1.6296    0.0257 N   0  0  0  0  0  0
   -1.9476   -2.0430   -0.0109 C   0  0  0  0  0  0
   -2.5613   -2.0756   -1.3977 C   0  0  0  0  0  0
   -3.3592   -0.9069   -1.9285 C   0  0  0  0  0  0
   -4.0575   -2.1959   -1.5696 C   0  0  0  0  0  0
    1.4039   -0.1627   -0.0902 C   0  0  2  0  0  0
    1.8801    1.0762    0.6826 C   0  0  0  0  0  0
    3.1788    1.4157    0.1018 N   0  0  0  0  0  0
    4.1069    2.2475    0.6257 C   0  0  0  0  0  0
    5.2480    2.3396    0.1727 O   0  0  0  0  0  0
    3.7257    3.0723    1.8220 C   0  0  0  0  0  0
    4.5202    3.0208    2.9882 C   0  0  0  0  0  0
    4.1909    3.8075    4.1093 C   0  0  0  0  0  0
    3.0721    4.6610    4.0675 C   0  0  0  0  0  0
    2.2877    4.7344    2.9004 C   0  0  0  0  0  0
    0.9243    5.7897    2.8416 Cl  0  0  0  0  0  0
    2.6181    3.9492    1.7788 C   0  0  0  0  0  0
    3.4296    0.5877   -1.0762 C   0  0  0  0  0  0
    2.0683   -0.0160   -1.4827 C   0  0  0  0  0  0
    2.2170   -1.3721   -2.2074 C   0  0  0  0  0  0
    2.8147   -1.2071   -3.6150 C   0  0  0  0  0  0
    1.9978   -0.3373   -4.3886 O   0  0  0  0  0  0
    1.9303    0.9789   -3.8543 C   0  0  0  0  0  0
    1.3106    0.9447   -2.4445 C   0  0  0  0  0  0
    0.1400   -2.3612    0.1032 H   0  0  0  0  0  0
   -2.0040   -3.0476    0.4087 H   0  0  0  0  0  0
   -2.5455   -1.4053    0.6427 H   0  0  0  0  0  0
   -1.9636   -2.6195   -2.1270 H   0  0  0  0  0  0
   -3.5097   -0.0536   -1.2703 H   0  0  0  0  0  0
   -3.2531   -0.6672   -2.9844 H   0  0  0  0  0  0
   -4.4210   -2.8145   -2.3875 H   0  0  0  0  0  0
   -4.6736   -2.1993   -0.6726 H   0  0  0  0  0  0
    1.8518   -1.0282    0.4029 H   0  0  0  0  0  0
    1.1969    1.9155    0.5530 H   0  0  0  0  0  0
    1.9616    0.8633    1.7497 H   0  0  0  0  0  0
    5.3833    2.3720    3.0306 H   0  0  0  0  0  0
    4.7980    3.7577    5.0011 H   0  0  0  0  0  0
    2.8213    5.2635    4.9281 H   0  0  0  0  0  0
    2.0194    4.0294    0.8831 H   0  0  0  0  0  0
    3.8981    1.1621   -1.8750 H   0  0  0  0  0  0
    4.1316   -0.1985   -0.7934 H   0  0  0  0  0  0
    2.8330   -2.0547   -1.6210 H   0  0  0  0  0  0
    1.2401   -1.8482   -2.2999 H   0  0  0  0  0  0
    3.8354   -0.8244   -3.5689 H   0  0  0  0  0  0
    2.8625   -2.1750   -4.1142 H   0  0  0  0  0  0
    2.9200    1.4355   -3.8545 H   0  0  0  0  0  0
    1.3114    1.5875   -4.5136 H   0  0  0  0  0  0
    0.2775    0.6206   -2.5689 H   0  0  0  0  0  0
    1.2664    1.9537   -2.0331 H   0  0  0  0  0  0
  1  2  2  0  0  0
  2  3  1  0  0  0
  2  8  1  0  0  0
  3  4  1  0  0  0
  3 27  1  0  0  0
  4  5  1  0  0  0
  4 28  1  0  0  0
  4 29  1  0  0  0
  5  7  1  0  0  0
  5  6  1  0  0  0
  5 30  1  0  0  0
  6  7  1  0  0  0
  6 31  1  0  0  0
  6 32  1  0  0  0
  7 33  1  0  0  0
  7 34  1  0  0  0
  8 21  1  0  0  0
  8  9  1  0  0  0
  8 35  1  0  0  0
  9 10  1  0  0  0
  9 36  1  0  0  0
  9 37  1  0  0  0
 10 11  1  0  0  0
 10 20  1  0  0  0
 11 12  2  0  0  0
 11 13  1  0  0  0
 13 19  1  0  0  0
 13 14  2  0  0  0
 14 15  1  0  0  0
 14 38  1  0  0  0
 15 16  2  0  0  0
 15 39  1  0  0  0
 16 17  1  0  0  0
 16 40  1  0  0  0
 17 18  1  0  0  0
 17 19  2  0  0  0
 19 41  1  0  0  0
 20 21  1  0  0  0
 20 42  1  0  0  0
 20 43  1  0  0  0
 21 26  1  0  0  0
 21 22  1  0  0  0
 22 23  1  0  0  0
 22 44  1  0  0  0
 22 45  1  0  0  0
 23 24  1  0  0  0
 23 46  1  0  0  0
 23 47  1  0  0  0
 24 25  1  0  0  0
 25 26  1  0  0  0
 25 48  1  0  0  0
 25 49  1  0  0  0
 26 50  1  0  0  0
 26 51  1  0  0  0
M  END
$$$$
37
                    3D
 Schrodinger Suite 2021-2.
 35 37  0  0  1  0            999 V2000
   -4.9571    1.1156   -0.0907 C   0  0  0  0  0  0
   -4.1917   -0.0769   -0.1847 O   0  0  0  0  0  0
   -2.8189    0.0267   -0.1186 C   0  0  0  0  0  0
   -2.0795   -1.1684   -0.2307 C   0  0  0  0  0  0
   -0.6727   -1.1556   -0.1760 C   0  0  0  0  0  0
    0.0203    0.0614   -0.0023 C   0  0  0  0  0  0
    1.4358    0.0751    0.0519 N   0  0  0  0  0  0
    2.1572   -0.7040   -0.7998 N   0  0  0  0  0  0
    3.4135   -0.4572   -0.4680 C   0  0  0  0  0  0
    3.5716    0.4550    0.5816 C   0  0  0  0  0  0
    2.2825    0.7853    0.8970 C   0  0  0  0  0  0
    1.8323    1.5774    1.9045 N   0  0  0  0  0  0
    2.3867    2.7009    2.3916 C   0  0  0  0  0  0
    3.4470    3.1859    2.0004 O   0  0  0  0  0  0
    1.6097    3.3952    3.5071 C   0  0  0  0  0  0
   -0.3266    3.5889    3.0751 Br  0  0  0  0  0  0
    4.9686    0.7310    1.0282 C   0  0  0  0  0  0
    5.9704   -0.4349    0.0266 S   0  0  0  0  0  0
    4.6332   -1.0721   -1.0533 C   0  0  0  0  0  0
   -0.7126    1.2626    0.1047 C   0  0  0  0  0  0
   -2.1195    1.2478    0.0502 C   0  0  0  0  0  0
   -6.0158    0.8710   -0.1757 H   0  0  0  0  0  0
   -4.8087    1.6096    0.8705 H   0  0  0  0  0  0
   -4.7144    1.8106   -0.8957 H   0  0  0  0  0  0
   -2.5973   -2.1074   -0.3607 H   0  0  0  0  0  0
   -0.1309   -2.0862   -0.2621 H   0  0  0  0  0  0
    0.9110    1.3538    2.2527 H   0  0  0  0  0  0
    1.6918    2.8235    4.4317 H   0  0  0  0  0  0
    2.0105    4.3928    3.6901 H   0  0  0  0  0  0
    5.2834    1.7505    0.8073 H   0  0  0  0  0  0
    5.1185    0.5437    2.0914 H   0  0  0  0  0  0
    4.5998   -2.1613   -1.0215 H   0  0  0  0  0  0
    4.7894   -0.7502   -2.0829 H   0  0  0  0  0  0
   -0.2014    2.2068    0.2211 H   0  0  0  0  0  0
   -2.6392    2.1898    0.1376 H   0  0  0  0  0  0
  1  2  1  0  0  0
  1 22  1  0  0  0
  1 23  1  0  0  0
  1 24  1  0  0  0
  2  3  1  0  0  0
  3 21  1  0  0  0
  3  4  2  0  0  0
  4  5  1  0  0  0
  4 25  1  0  0  0
  5  6  2  0  0  0
  5 26  1  0  0  0
  6  7  1  0  0  0
  6 20  1  0  0  0
  7 11  1  0  0  0
  7  8  1  0  0  0
  8  9  2  0  0  0
  9 19  1  0  0  0
  9 10  1  0  0  0
 10 11  2  0  0  0
 10 17  1  0  0  0
 11 12  1  0  0  0
 12 13  1  0  0  0
 12 27  1  0  0  0
 13 14  2  0  0  0
 13 15  1  0  0  0
 15 16  1  0  0  0
 15 28  1  0  0  0
 15 29  1  0  0  0
 17 18  1  0  0  0
 17 30  1  0  0  0
 17 31  1  0  0  0
 18 19  1  0  0  0
 19 32  1  0  0  0
 19 33  1  0  0  0
 20 21  2  0  0  0
 20 34  1  0  0  0
 21 35  1  0  0  0
M  END
$$$$
38
                    3D
 Schrodinger Suite 2021-2.
 33 33  0  0  1  0            999 V2000
   -2.6211    0.9902   -0.1541 C   0  0  0  0  0  0
   -0.9095    1.5773   -0.2340 S   0  0  0  0  0  0
   -0.0398   -0.0067   -0.0272 C   0  0  0  0  0  0
    1.5058    0.1157   -0.0409 C   0  0  1  0  0  0
    2.0149    0.7452   -1.3526 C   0  0  0  0  0  0
    1.9155    0.9758    1.0063 O   0  0  0  0  0  0
    2.2244   -1.2410    0.1737 C   0  0  0  0  0  0
    1.7301   -1.9847    1.3312 N   0  0  0  0  0  0
    0.8860   -3.0291    1.2928 C   0  0  0  0  0  0
    0.4383   -3.5078    0.2508 O   0  0  0  0  0  0
    0.5125   -3.5900    2.6366 C   0  0  0  0  0  0
    0.1370   -2.7020    3.6720 C   0  0  0  0  0  0
   -0.2480   -3.1895    4.9346 C   0  0  0  0  0  0
   -0.7491   -1.9743    6.3103 Br  0  0  0  0  0  0
   -0.2659   -4.5744    5.1770 C   0  0  0  0  0  0
    0.1020   -5.4684    4.1551 C   0  0  0  0  0  0
    0.4897   -4.9886    2.8873 C   0  0  0  0  0  0
    0.9549   -6.1509    1.6911 Cl  0  0  0  0  0  0
   -3.3113    1.8270   -0.2606 H   0  0  0  0  0  0
   -2.8162    0.2763   -0.9546 H   0  0  0  0  0  0
   -2.8125    0.5029    0.8020 H   0  0  0  0  0  0
   -0.3853   -0.4331    0.9144 H   0  0  0  0  0  0
   -0.3649   -0.6850   -0.8168 H   0  0  0  0  0  0
    1.7065    0.1557   -2.2166 H   0  0  0  0  0  0
    1.6409    1.7591   -1.4964 H   0  0  0  0  0  0
    3.1041    0.8024   -1.3677 H   0  0  0  0  0  0
    1.5952    0.6275    1.8239 H   0  0  0  0  0  0
    2.1291   -1.8510   -0.7263 H   0  0  0  0  0  0
    3.2958   -1.0838    0.3061 H   0  0  0  0  0  0
    2.0502   -1.6733    2.2369 H   0  0  0  0  0  0
    0.1323   -1.6348    3.5018 H   0  0  0  0  0  0
   -0.5611   -4.9517    6.1451 H   0  0  0  0  0  0
    0.0893   -6.5313    4.3471 H   0  0  0  0  0  0
  1  2  1  0  0  0
  1 19  1  0  0  0
  1 20  1  0  0  0
  1 21  1  0  0  0
  2  3  1  0  0  0
  3  4  1  0  0  0
  3 22  1  0  0  0
  3 23  1  0  0  0
  4  5  1  0  0  0
  4  6  1  0  0  0
  4  7  1  0  0  0
  5 24  1  0  0  0
  5 25  1  0  0  0
  5 26  1  0  0  0
  6 27  1  0  0  0
  7  8  1  0  0  0
  7 28  1  0  0  0
  7 29  1  0  0  0
  8  9  1  0  0  0
  8 30  1  0  0  0
  9 10  2  0  0  0
  9 11  1  0  0  0
 11 17  1  0  0  0
 11 12  2  0  0  0
 12 13  1  0  0  0
 12 31  1  0  0  0
 13 14  1  0  0  0
 13 15  2  0  0  0
 15 16  1  0  0  0
 15 32  1  0  0  0
 16 17  2  0  0  0
 16 33  1  0  0  0
 17 18  1  0  0  0
M  END
$$$$
39
                    3D
 Schrodinger Suite 2021-2.
 50 52  0  0  1  0            999 V2000
   -4.3759    0.0048    0.1652 C   0  0  0  0  0  0
   -2.8911   -0.1734   -0.1026 C   0  0  0  0  0  0
   -2.1052    0.9819   -0.2966 C   0  0  0  0  0  0
   -0.7220    0.8827   -0.5363 C   0  0  0  0  0  0
   -0.0961   -0.3831   -0.5835 C   0  0  0  0  0  0
    1.2789   -0.5436   -0.8065 N   0  0  0  0  0  0
    2.1678    0.6018   -0.9526 C   0  0  0  0  0  0
    3.6293    0.1810   -1.1395 C   0  0  0  0  0  0
    3.9716   -0.9986   -1.0375 O   0  0  0  0  0  0
    4.4865    1.1761   -1.4094 N   0  0  0  0  0  0
    5.8910    1.0294   -1.6154 C   0  0  0  0  0  0
    6.7889    2.1563   -1.1530 C   0  0  0  0  0  0
    6.5535    1.9440   -2.6228 C   0  0  0  0  0  0
   -0.8773   -1.5397   -0.3962 C   0  0  0  0  0  0
   -2.2673   -1.4471   -0.1677 C   0  0  0  0  0  0
   -3.1668   -2.9868    0.1054 S   0  0  0  0  0  0
   -4.5281   -2.8561   -0.4364 O   0  0  0  0  0  0
   -2.3212   -4.0904   -0.3771 O   0  0  0  0  0  0
   -3.2815   -3.1345    1.9474 C   0  0  0  0  0  0
   -1.8815   -3.2539    2.5823 C   0  0  0  0  0  0
   -1.9714   -3.4330    4.1064 C   0  0  0  0  0  0
   -2.8480   -4.6403    4.4750 C   0  0  0  0  0  0
   -4.2455   -4.5236    3.8466 C   0  0  0  0  0  0
   -4.1580   -4.3439    2.3225 C   0  0  0  0  0  0
   -4.6124    1.0444    0.3936 H   0  0  0  0  0  0
   -4.9565   -0.2807   -0.7120 H   0  0  0  0  0  0
   -4.7036   -0.5940    1.0136 H   0  0  0  0  0  0
   -2.5616    1.9602   -0.2590 H   0  0  0  0  0  0
   -0.1575    1.7921   -0.6770 H   0  0  0  0  0  0
    1.6847   -1.4690   -0.8162 H   0  0  0  0  0  0
    1.8579    1.1949   -1.8145 H   0  0  0  0  0  0
    2.0984    1.2352   -0.0669 H   0  0  0  0  0  0
    4.1145    2.1127   -1.4718 H   0  0  0  0  0  0
    6.3065    0.0256   -1.5363 H   0  0  0  0  0  0
    6.3216    3.0237   -0.6905 H   0  0  0  0  0  0
    7.7663    1.8879   -0.7570 H   0  0  0  0  0  0
    7.3731    1.5331   -3.2089 H   0  0  0  0  0  0
    5.9283    2.6685   -3.1412 H   0  0  0  0  0  0
   -0.3970   -2.5067   -0.4231 H   0  0  0  0  0  0
   -3.7605   -2.2278    2.3155 H   0  0  0  0  0  0
   -1.3479   -4.1010    2.1497 H   0  0  0  0  0  0
   -1.2881   -2.3674    2.3587 H   0  0  0  0  0  0
   -0.9724   -3.5567    4.5252 H   0  0  0  0  0  0
   -2.3853   -2.5297    4.5566 H   0  0  0  0  0  0
   -2.3683   -5.5581    4.1325 H   0  0  0  0  0  0
   -2.9329   -4.7213    5.5590 H   0  0  0  0  0  0
   -4.8345   -5.4102    4.0832 H   0  0  0  0  0  0
   -4.7738   -3.6756    4.2843 H   0  0  0  0  0  0
   -5.1599   -4.2222    1.9098 H   0  0  0  0  0  0
   -3.7471   -5.2487    1.8727 H   0  0  0  0  0  0
  1  2  1  0  0  0
  1 25  1  0  0  0
  1 26  1  0  0  0
  1 27  1  0  0  0
  2 15  1  0  0  0
  2  3  2  0  0  0
  3  4  1  0  0  0
  3 28  1  0  0  0
  4  5  2  0  0  0
  4 29  1  0  0  0
  5  6  1  0  0  0
  5 14  1  0  0  0
  6  7  1  0  0  0
  6 30  1  0  0  0
  7  8  1  0  0  0
  7 31  1  0  0  0
  7 32  1  0  0  0
  8  9  2  0  0  0
  8 10  1  0  0  0
 10 11  1  0  0  0
 10 33  1  0  0  0
 11 13  1  0  0  0
 11 12  1  0  0  0
 11 34  1  0  0  0
 12 13  1  0  0  0
 12 35  1  0  0  0
 12 36  1  0  0  0
 13 37  1  0  0  0
 13 38  1  0  0  0
 14 15  2  0  0  0
 14 39  1  0  0  0
 15 16  1  0  0  0
 16 17  2  0  0  0
 16 18  2  0  0  0
 16 19  1  0  0  0
 19 24  1  0  0  0
 19 20  1  0  0  0
 19 40  1  0  0  0
 20 21  1  0  0  0
 20 41  1  0  0  0
 20 42  1  0  0  0
 21 22  1  0  0  0
 21 43  1  0  0  0
 21 44  1  0  0  0
 22 23  1  0  0  0
 22 45  1  0  0  0
 22 46  1  0  0  0
 23 24  1  0  0  0
 23 47  1  0  0  0
 23 48  1  0  0  0
 24 49  1  0  0  0
 24 50  1  0  0  0
M  END
$$$$
40
                    3D
 Schrodinger Suite 2021-2.
 39 40  0  0  1  0            999 V2000
   -2.4846   -1.9287    2.2350 C   0  0  0  0  0  0
   -2.7674   -1.4452    0.8059 C   0  0  0  0  0  0
   -1.6761   -1.8397   -0.2055 C   0  0  0  0  0  0
   -0.3754   -1.2780    0.1406 N   0  0  0  0  0  0
    0.0098   -0.0173   -0.1089 C   0  0  0  0  0  0
   -0.6730    0.7977   -0.7288 O   0  0  0  0  0  0
    1.2628    0.2320    0.3096 N   0  0  0  0  0  0
    1.8169   -0.0311    1.6407 C   0  0  2  0  0  0
    0.9669    0.4650    2.7405 C   0  0  0  0  0  0
    0.3000    0.8536    3.6022 N   0  0  0  0  0  0
    2.9760    0.8845    1.2286 C   0  0  2  0  0  0
    3.6993    1.7439    2.2521 C   0  0  0  0  0  0
    4.1298    1.1764    3.4701 C   0  0  0  0  0  0
    4.8017    1.9668    4.4228 C   0  0  0  0  0  0
    5.0517    3.3274    4.1594 C   0  0  0  0  0  0
    5.9593    4.3963    5.4458 Br  0  0  0  0  0  0
    4.6311    3.8963    2.9419 C   0  0  0  0  0  0
    3.9582    3.1064    1.9900 C   0  0  0  0  0  0
    2.0107    1.4891    0.1992 C   0  0  1  0  0  0
    2.4282    1.7927   -1.2459 C   0  0  0  0  0  0
    3.2578    0.7835   -1.7853 O   0  0  0  0  0  0
    2.1280   -1.0617    1.8149 H   0  0  0  0  0  0
    3.7382    0.2835    0.7284 H   0  0  0  0  0  0
    1.4445    2.3154    0.6353 H   0  0  0  0  0  0
   -3.3056   -1.6647    2.9018 H   0  0  0  0  0  0
   -2.3660   -3.0121    2.2671 H   0  0  0  0  0  0
   -1.5771   -1.4787    2.6379 H   0  0  0  0  0  0
   -3.7204   -1.8591    0.4752 H   0  0  0  0  0  0
   -2.8951   -0.3620    0.8094 H   0  0  0  0  0  0
   -1.5797   -2.9251   -0.2415 H   0  0  0  0  0  0
   -1.9625   -1.5242   -1.2100 H   0  0  0  0  0  0
    0.2732   -1.8880    0.6164 H   0  0  0  0  0  0
    3.9434    0.1330    3.6788 H   0  0  0  0  0  0
    5.1255    1.5286    5.3554 H   0  0  0  0  0  0
    4.8246    4.9389    2.7370 H   0  0  0  0  0  0
    3.6435    3.5540    1.0590 H   0  0  0  0  0  0
    1.5566    1.9109   -1.8900 H   0  0  0  0  0  0
    2.9726    2.7361   -1.2890 H   0  0  0  0  0  0
    3.4718    1.0151   -2.6763 H   0  0  0  0  0  0
  1  2  1  0  0  0
  1 25  1  0  0  0
  1 26  1  0  0  0
  1 27  1  0  0  0
  2  3  1  0  0  0
  2 28  1  0  0  0
  2 29  1  0  0  0
  3  4  1  0  0  0
  3 30  1  0  0  0
  3 31  1  0  0  0
  4  5  1  0  0  0
  4 32  1  0  0  0
  5  6  2  0  0  0
  5  7  1  0  0  0
  7 19  1  0  0  0
  7  8  1  0  0  0
  8 22  1  0  0  0
  8  9  1  0  0  0
  8 11  1  0  0  0
  9 10  3  0  0  0
 11 23  1  0  0  0
 11 12  1  0  0  0
 11 19  1  0  0  0
 12 18  1  0  0  0
 12 13  2  0  0  0
 13 14  1  0  0  0
 13 33  1  0  0  0
 14 15  2  0  0  0
 14 34  1  0  0  0
 15 16  1  0  0  0
 15 17  1  0  0  0
 17 18  2  0  0  0
 17 35  1  0  0  0
 18 36  1  0  0  0
 19 24  1  0  0  0
 19 20  1  0  0  0
 20 21  1  0  0  0
 20 37  1  0  0  0
 20 38  1  0  0  0
 21 39  1  0  0  0
M  END
$$$$
41
                    3D
 Schrodinger Suite 2021-2.
 46 49  0  0  1  0            999 V2000
   -0.6887    1.1954    0.0000 O   0  0  0  0  0  0
   -0.0390    0.1491    0.0000 C   0  0  0  0  0  0
   -0.6128   -1.0703    0.0000 O   0  0  0  0  0  0
   -2.0267   -1.1954   -0.0000 C   0  0  0  0  0  0
   -2.4411   -2.6790    0.0000 C   0  0  0  0  0  0
   -1.9225   -3.4321    1.2521 C   0  0  0  0  0  0
   -2.3833   -4.9128    1.2196 C   0  0  0  0  0  0
   -3.1946   -5.1692    0.0000 N   0  3  0  0  0  0
   -4.4028   -4.3034   -0.0000 C   0  0  0  0  0  0
   -3.9848   -2.8099    0.0000 C   0  0  0  0  0  0
   -2.3833   -4.9128   -1.2197 C   0  0  0  0  0  0
   -1.9225   -3.4321   -1.2521 C   0  0  0  0  0  0
    1.4180    0.0906    0.0000 C   0  0  0  0  0  0
    2.1528   -1.0717    0.0000 C   0  0  0  0  0  0
    3.4998   -0.7593   -0.0000 N   0  0  0  0  0  0
    3.6828    0.6083   -0.0000 C   0  0  0  0  0  0
    4.8434    1.4034   -0.0000 C   0  0  0  0  0  0
    4.7317    2.8151   -0.0000 C   0  0  0  0  0  0
    5.8026    3.6859   -0.0000 O   0  0  0  0  0  0
    7.0839    3.2273    0.0000 C   0  0  0  0  0  0
    7.9388    4.2784   -0.0000 F   0  0  0  0  0  0
    7.3597    2.4948    1.1083 F   0  0  0  0  0  0
    7.3597    2.4948   -1.1083 F   0  0  0  0  0  0
    3.4439    3.3881   -0.0000 C   0  0  0  0  0  0
    2.2872    2.5837   -0.0000 C   0  0  0  0  0  0
    2.3735    1.1716   -0.0000 C   0  0  0  0  0  0
   -3.4860   -6.1365   -0.0000 H   0  0  0  0  0  0
    4.2294   -1.4577    0.0000 H   0  0  0  0  0  0
   -2.4352   -0.6937    0.8785 H   0  0  0  0  0  0
   -2.4352   -0.6937   -0.8785 H   0  0  0  0  0  0
   -0.8336   -3.3903    1.3011 H   0  0  0  0  0  0
   -2.2861   -2.9495    2.1604 H   0  0  0  0  0  0
   -1.5218   -5.5818    1.2331 H   0  0  0  0  0  0
   -2.9726   -5.1483    2.1068 H   0  0  0  0  0  0
   -5.0150   -4.5289   -0.8742 H   0  0  0  0  0  0
   -5.0150   -4.5289    0.8742 H   0  0  0  0  0  0
   -4.4065   -2.3084    0.8723 H   0  0  0  0  0  0
   -4.4065   -2.3084   -0.8723 H   0  0  0  0  0  0
   -1.5218   -5.5818   -1.2331 H   0  0  0  0  0  0
   -2.9726   -5.1483   -2.1069 H   0  0  0  0  0  0
   -2.2861   -2.9495   -2.1604 H   0  0  0  0  0  0
   -0.8336   -3.3903   -1.3011 H   0  0  0  0  0  0
    1.8295   -2.1026    0.0000 H   0  0  0  0  0  0
    5.8026    0.9096   -0.0000 H   0  0  0  0  0  0
    3.3398    4.4633   -0.0000 H   0  0  0  0  0  0
    1.3169    3.0576   -0.0000 H   0  0  0  0  0  0
  1  2  2  0  0  0
  2  3  1  0  0  0
  2 13  1  0  0  0
  3  4  1  0  0  0
  4  5  1  0  0  0
  4 29  1  0  0  0
  4 30  1  0  0  0
  5 10  1  0  0  0
  5 12  1  0  0  0
  5  6  1  0  0  0
  6  7  1  0  0  0
  6 31  1  0  0  0
  6 32  1  0  0  0
  7  8  1  0  0  0
  7 33  1  0  0  0
  7 34  1  0  0  0
  8 27  1  0  0  0
  8  9  1  0  0  0
  8 11  1  0  0  0
  9 10  1  0  0  0
  9 35  1  0  0  0
  9 36  1  0  0  0
 10 37  1  0  0  0
 10 38  1  0  0  0
 11 12  1  0  0  0
 11 39  1  0  0  0
 11 40  1  0  0  0
 12 41  1  0  0  0
 12 42  1  0  0  0
 13 26  1  0  0  0
 13 14  2  0  0  0
 14 15  1  0  0  0
 14 43  1  0  0  0
 15 28  1  0  0  0
 15 16  1  0  0  0
 16 26  1  0  0  0
 16 17  2  0  0  0
 17 18  1  0  0  0
 17 44  1  0  0  0
 18 19  1  0  0  0
 18 24  2  0  0  0
 19 20  1  0  0  0
 20 21  1  0  0  0
 20 22  1  0  0  0
 20 23  1  0  0  0
 24 25  1  0  0  0
 24 45  1  0  0  0
 25 26  2  0  0  0
 25 46  1  0  0  0
M  CHG  1   8   1
M  END
$$$$
42
                    3D
 Schrodinger Suite 2021-2.
 54 56  0  0  1  0            999 V2000
   -0.1472    9.0312    5.7107 C   0  0  0  0  0  0
   -1.1677    8.7226    4.5957 C   0  0  0  0  0  0
   -2.5723    8.6966    5.2398 C   0  0  0  0  0  0
   -1.1512    9.8657    3.5594 C   0  0  0  0  0  0
   -0.7957    7.3943    3.9091 C   0  0  0  0  0  0
   -1.6634    6.2747    3.9006 C   0  0  0  0  0  0
   -1.2890    5.0749    3.2653 C   0  0  0  0  0  0
   -0.0391    4.9610    2.6189 C   0  0  0  0  0  0
    0.3493    3.7106    1.9628 C   0  0  0  0  0  0
    1.4672    3.5557    1.2397 N   0  0  0  0  0  0
    1.4665    2.2471    0.7957 N   0  0  0  0  0  0
    0.3527    1.7030    1.2906 C   0  0  0  0  0  0
   -0.1901    0.0389    1.0619 S   0  0  0  0  0  0
    1.3315   -0.7326    0.4294 C   0  0  0  0  0  0
    2.4014   -0.9011    1.5199 C   0  0  0  0  0  0
    3.6922   -1.5332    0.9733 C   0  0  0  0  0  0
    4.7129   -1.7481    2.0295 N   0  3  0  0  0  0
    5.7122   -2.7741    1.6464 C   0  0  0  0  0  0
    6.7208   -2.9987    2.7857 C   0  0  0  0  0  0
    7.3502   -1.7670    3.1142 O   0  0  0  0  0  0
    6.4145   -0.7984    3.5708 C   0  0  0  0  0  0
    5.3930   -0.5005    2.4601 C   0  0  0  0  0  0
   -0.3667    2.5734    2.0095 N   0  0  0  0  0  0
    0.8305    6.0727    2.6240 C   0  0  0  0  0  0
    0.4556    7.2708    3.2610 C   0  0  0  0  0  0
    4.2258   -2.1149    2.8348 H   0  0  0  0  0  0
   -1.2444    2.4117    2.4814 H   0  0  0  0  0  0
    0.8649    9.1423    5.3217 H   0  0  0  0  0  0
   -0.3937    9.9586    6.2290 H   0  0  0  0  0  0
   -0.1264    8.2357    6.4564 H   0  0  0  0  0  0
   -3.3518    8.5114    4.4998 H   0  0  0  0  0  0
   -2.6482    7.9305    6.0123 H   0  0  0  0  0  0
   -2.8064    9.6499    5.7155 H   0  0  0  0  0  0
   -1.8515    9.6708    2.7463 H   0  0  0  0  0  0
   -1.4337   10.8163    4.0133 H   0  0  0  0  0  0
   -0.1650   10.0059    3.1166 H   0  0  0  0  0  0
   -2.6306    6.3049    4.3773 H   0  0  0  0  0  0
   -1.9780    4.2433    3.2800 H   0  0  0  0  0  0
    1.0645   -1.7108    0.0289 H   0  0  0  0  0  0
    1.7145   -0.1519   -0.4103 H   0  0  0  0  0  0
    2.6208    0.0675    1.9653 H   0  0  0  0  0  0
    2.0026   -1.5230    2.3223 H   0  0  0  0  0  0
    3.4338   -2.4950    0.5280 H   0  0  0  0  0  0
    4.1121   -0.9245    0.1708 H   0  0  0  0  0  0
    5.2094   -3.7137    1.4136 H   0  0  0  0  0  0
    6.2343   -2.4569    0.7422 H   0  0  0  0  0  0
    6.2295   -3.4173    3.6655 H   0  0  0  0  0  0
    7.4838   -3.7136    2.4770 H   0  0  0  0  0  0
    5.9157   -1.1538    4.4741 H   0  0  0  0  0  0
    6.9516    0.1110    3.8408 H   0  0  0  0  0  0
    5.8963   -0.0436    1.6065 H   0  0  0  0  0  0
    4.6682    0.2248    2.8278 H   0  0  0  0  0  0
    1.7954    6.0195    2.1414 H   0  0  0  0  0  0
    1.1466    8.1003    3.2463 H   0  0  0  0  0  0
  1  2  1  0  0  0
  1 28  1  0  0  0
  1 29  1  0  0  0
  1 30  1  0  0  0
  2  3  1  0  0  0
  2  4  1  0  0  0
  2  5  1  0  0  0
  3 31  1  0  0  0
  3 32  1  0  0  0
  3 33  1  0  0  0
  4 34  1  0  0  0
  4 35  1  0  0  0
  4 36  1  0  0  0
  5 25  1  0  0  0
  5  6  2  0  0  0
  6  7  1  0  0  0
  6 37  1  0  0  0
  7  8  2  0  0  0
  7 38  1  0  0  0
  8  9  1  0  0  0
  8 24  1  0  0  0
  9 23  1  0  0  0
  9 10  2  0  0  0
 10 11  1  0  0  0
 11 12  2  0  0  0
 12 13  1  0  0  0
 12 23  1  0  0  0
 13 14  1  0  0  0
 14 15  1  0  0  0
 14 39  1  0  0  0
 14 40  1  0  0  0
 15 16  1  0  0  0
 15 41  1  0  0  0
 15 42  1  0  0  0
 16 17  1  0  0  0
 16 43  1  0  0  0
 16 44  1  0  0  0
 17 26  1  0  0  0
 17 22  1  0  0  0
 17 18  1  0  0  0
 18 19  1  0  0  0
 18 45  1  0  0  0
 18 46  1  0  0  0
 19 20  1  0  0  0
 19 47  1  0  0  0
 19 48  1  0  0  0
 20 21  1  0  0  0
 21 22  1  0  0  0
 21 49  1  0  0  0
 21 50  1  0  0  0
 22 51  1  0  0  0
 22 52  1  0  0  0
 23 27  1  0  0  0
 24 25  2  0  0  0
 24 53  1  0  0  0
 25 54  1  0  0  0
M  CHG  1  17   1
M  END
$$$$
43
                    3D
 Schrodinger Suite 2021-2.
 47 50  0  0  1  0            999 V2000
   -2.3001    3.0545    1.6726 C   0  0  0  0  0  0
   -2.1250    1.2677    1.2730 S   0  0  0  0  0  0
   -1.5797    0.5866    2.4570 O   0  0  0  0  0  0
   -3.3721    0.7841    0.6612 O   0  0  0  0  0  0
   -0.9001    1.2658    0.0453 N   0  0  2  0  0  0
   -1.2215    1.8924   -1.2453 C   0  0  0  0  0  0
   -1.0817    0.7837   -2.2862 C   0  0  0  0  0  0
    0.0502   -0.0632   -1.7271 C   0  0  0  0  0  0
   -0.1825    0.0029   -0.2087 C   0  0  1  0  0  0
    1.0738   -0.1326    0.6829 C   0  0  2  0  0  0
    2.0707    0.7880    0.2789 O   0  0  0  0  0  0
    1.6489   -1.5621    0.6532 C   0  0  0  0  0  0
    2.7610   -1.7331    1.5752 N   0  0  0  0  0  0
    4.1229   -1.7094    1.2558 C   0  0  0  0  0  0
    4.7611   -1.5157    0.0124 C   0  0  0  0  0  0
    6.1651   -1.5346   -0.0726 C   0  0  0  0  0  0
    6.9354   -1.7468    1.0849 C   0  0  0  0  0  0
    6.3021   -1.9375    2.3277 C   0  0  0  0  0  0
    4.8919   -1.9214    2.4373 C   0  0  0  0  0  0
    3.9575   -2.0734    3.5173 C   0  0  0  0  0  0
    4.0663   -2.2998    4.9092 C   0  0  0  0  0  0
    2.9194   -2.3995    5.7199 C   0  0  0  0  0  0
    1.6399   -2.2732    5.1492 C   0  0  0  0  0  0
    1.5076   -2.0488    3.7668 C   0  0  0  0  0  0
    2.6552   -1.9498    2.9522 C   0  0  0  0  0  0
   -3.0323    3.1752    2.4706 H   0  0  0  0  0  0
   -1.3393    3.4497    2.0012 H   0  0  0  0  0  0
   -2.6360    3.6005    0.7918 H   0  0  0  0  0  0
   -2.2192    2.3319   -1.2489 H   0  0  0  0  0  0
   -0.5015    2.6894   -1.4349 H   0  0  0  0  0  0
   -2.0004    0.1970   -2.3308 H   0  0  0  0  0  0
   -0.8734    1.1652   -3.2860 H   0  0  0  0  0  0
    0.0377   -1.0846   -2.1087 H   0  0  0  0  0  0
    1.0038    0.3833   -2.0094 H   0  0  0  0  0  0
   -0.8709   -0.8048    0.0462 H   0  0  0  0  0  0
    0.8137    0.1073    1.7133 H   0  0  0  0  0  0
    1.7156    1.6608    0.3523 H   0  0  0  0  0  0
    0.8754   -2.2825    0.9212 H   0  0  0  0  0  0
    1.9727   -1.8277   -0.3532 H   0  0  0  0  0  0
    4.1771   -1.3489   -0.8803 H   0  0  0  0  0  0
    6.6508   -1.3861   -1.0257 H   0  0  0  0  0  0
    8.0134   -1.7620    1.0206 H   0  0  0  0  0  0
    6.9017   -2.0974    3.2115 H   0  0  0  0  0  0
    5.0444   -2.3962    5.3568 H   0  0  0  0  0  0
    3.0222   -2.5723    6.7811 H   0  0  0  0  0  0
    0.7600   -2.3483    5.7708 H   0  0  0  0  0  0
    0.5230   -1.9507    3.3337 H   0  0  0  0  0  0
  1  2  1  0  0  0
  1 26  1  0  0  0
  1 27  1  0  0  0
  1 28  1  0  0  0
  2  3  2  0  0  0
  2  4  2  0  0  0
  2  5  1  0  0  0
  5  9  1  0  0  0
  5  6  1  0  0  0
  6  7  1  0  0  0
  6 29  1  0  0  0
  6 30  1  0  0  0
  7  8  1  0  0  0
  7 31  1  0  0  0
  7 32  1  0  0  0
  8  9  1  0  0  0
  8 33  1  0  0  0
  8 34  1  0  0  0
  9 10  1  0  0  0
  9 35  1  0  0  0
 10 11  1  0  0  0
 10 12  1  0  0  0
 10 36  1  0  0  0
 11 37  1  0  0  0
 12 13  1  0  0  0
 12 38  1  0  0  0
 12 39  1  0  0  0
 13 25  1  0  0  0
 13 14  1  0  0  0
 14 19  2  0  0  0
 14 15  1  0  0  0
 15 16  2  0  0  0
 15 40  1  0  0  0
 16 17  1  0  0  0
 16 41  1  0  0  0
 17 18  2  0  0  0
 17 42  1  0  0  0
 18 19  1  0  0  0
 18 43  1  0  0  0
 19 20  1  0  0  0
 20 25  2  0  0  0
 20 21  1  0  0  0
 21 22  2  0  0  0
 21 44  1  0  0  0
 22 23  1  0  0  0
 22 45  1  0  0  0
 23 24  2  0  0  0
 23 46  1  0  0  0
 24 25  1  0  0  0
 24 47  1  0  0  0
M  END
$$$$
44
                    3D
 Schrodinger Suite 2021-2.
 31 32  0  0  1  0            999 V2000
   -2.4375   -0.0280    1.5257 C   0  0  0  0  0  0
   -1.0072   -0.5827    1.5120 C   0  0  0  0  0  0
   -0.7664   -1.5613    2.2227 O   0  0  0  0  0  0
   -0.0686    0.0149    0.7337 N   0  0  0  0  0  0
    1.1930   -0.5391    0.7395 N   0  0  0  0  0  0
    2.1576   -0.0809    0.0151 C   0  0  0  0  0  0
    3.5005   -0.6787    0.0294 C   0  0  0  0  0  0
    3.8144   -1.7966    0.8383 C   0  0  0  0  0  0
    5.1128   -2.3427    0.8253 C   0  0  0  0  0  0
    6.1081   -1.7780    0.0052 C   0  0  0  0  0  0
    7.6982   -2.4475   -0.0102 Cl  0  0  0  0  0  0
    5.8034   -0.6658   -0.8024 C   0  0  0  0  0  0
    4.5053   -0.1193   -0.7899 C   0  0  0  0  0  0
   -0.4195    1.1639   -0.0332 C   0  0  0  0  0  0
   -0.8514    1.0773   -1.2949 N   0  0  0  0  0  0
   -1.0896    2.2885   -1.8207 C   0  0  0  0  0  0
   -1.5844    2.6131   -3.2143 C   0  0  0  0  0  0
   -0.3705    2.1627   -4.4380 Cl  0  0  0  0  0  0
   -0.8422    3.4146   -0.9545 C   0  0  0  0  0  0
   -0.2270    2.8574    0.7113 Se  0  0  0  0  0  0
   -2.4556    0.9941    1.9042 H   0  0  0  0  0  0
   -2.8708   -0.0415    0.5252 H   0  0  0  0  0  0
   -3.0766   -0.6315    2.1711 H   0  0  0  0  0  0
    2.0046    0.7763   -0.6412 H   0  0  0  0  0  0
    3.0672   -2.2473    1.4755 H   0  0  0  0  0  0
    5.3430   -3.1961    1.4462 H   0  0  0  0  0  0
    6.5644   -0.2296   -1.4326 H   0  0  0  0  0  0
    4.2881    0.7342   -1.4162 H   0  0  0  0  0  0
   -2.4961    2.0543   -3.4260 H   0  0  0  0  0  0
   -1.8015    3.6753   -3.3311 H   0  0  0  0  0  0
   -0.9659    4.4680   -1.1739 H   0  0  0  0  0  0
  1  2  1  0  0  0
  1 21  1  0  0  0
  1 22  1  0  0  0
  1 23  1  0  0  0
  2  3  2  0  0  0
  2  4  1  0  0  0
  4  5  1  0  0  0
  4 14  1  0  0  0
  5  6  2  0  0  0
  6  7  1  0  0  0
  6 24  1  0  0  0
  7 13  1  0  0  0
  7  8  2  0  0  0
  8  9  1  0  0  0
  8 25  1  0  0  0
  9 10  2  0  0  0
  9 26  1  0  0  0
 10 11  1  0  0  0
 10 12  1  0  0  0
 12 13  2  0  0  0
 12 27  1  0  0  0
 13 28  1  0  0  0
 14 20  1  0  0  0
 14 15  2  0  0  0
 15 16  1  0  0  0
 16 17  1  0  0  0
 16 19  2  0  0  0
 17 18  1  0  0  0
 17 29  1  0  0  0
 17 30  1  0  0  0
 19 20  1  0  0  0
 19 31  1  0  0  0
M  END
$$$$
45
                    3D
 Schrodinger Suite 2021-2.
 45 46  0  0  1  0            999 V2000
   -2.4166   -2.7582   -0.0522 C   0  0  0  0  0  0
   -2.0389   -1.2858    0.1268 C   0  0  0  0  0  0
   -0.6348   -1.1420   -0.0076 O   0  0  0  0  0  0
   -0.0701    0.0731    0.1328 C   0  0  0  0  0  0
   -0.6867    1.1050    0.4051 O   0  0  0  0  0  0
    1.4727    0.0477   -0.0239 C   0  0  0  0  0  0
    2.0312   -0.6814    1.2388 C   0  0  0  0  0  0
    3.5513   -0.7953    1.3512 C   0  0  0  0  0  0
    4.2724    0.2591    1.9552 C   0  0  0  0  0  0
    5.6717    0.1900    2.0886 C   0  0  0  0  0  0
    6.3650   -0.9443    1.6299 C   0  0  0  0  0  0
    5.6556   -2.0095    1.0454 C   0  0  0  0  0  0
    4.2542   -1.9450    0.9079 C   0  0  0  0  0  0
    3.4373   -3.2976    0.2052 Cl  0  0  0  0  0  0
    1.8812   -0.6807   -1.3300 C   0  0  0  0  0  0
    1.4171    0.0447   -2.6071 C   0  0  0  0  0  0
    1.9086    1.4353   -2.6498 N   0  0  1  0  0  0
    1.8348    2.2596   -4.1743 S   0  0  0  0  0  0
    3.0845    1.3729   -5.1936 C   0  0  0  0  0  0
    0.4975    2.0319   -4.7433 O   0  0  0  0  0  0
    2.3216    3.6326   -3.9693 O   0  0  0  0  0  0
    1.6169    2.2234   -1.4372 C   0  0  0  0  0  0
    2.0518    1.4829   -0.1548 C   0  0  0  0  0  0
   -3.4934   -2.8965    0.0457 H   0  0  0  0  0  0
   -2.1210   -3.1219   -1.0366 H   0  0  0  0  0  0
   -1.9301   -3.3821    0.6980 H   0  0  0  0  0  0
   -2.5469   -0.6748   -0.6207 H   0  0  0  0  0  0
   -2.3556   -0.9350    1.1100 H   0  0  0  0  0  0
    1.6846   -0.1586    2.1323 H   0  0  0  0  0  0
    1.5984   -1.6782    1.3242 H   0  0  0  0  0  0
    3.7508    1.1341    2.3146 H   0  0  0  0  0  0
    6.2120    1.0062    2.5451 H   0  0  0  0  0  0
    7.4387   -1.0006    1.7328 H   0  0  0  0  0  0
    6.1906   -2.8841    0.7053 H   0  0  0  0  0  0
    2.9667   -0.7715   -1.3757 H   0  0  0  0  0  0
    1.5027   -1.7034   -1.3400 H   0  0  0  0  0  0
    1.7827   -0.4993   -3.4767 H   0  0  0  0  0  0
    0.3291    0.0480   -2.6818 H   0  0  0  0  0  0
    3.1779    1.8700   -6.1589 H   0  0  0  0  0  0
    4.0479    1.3910   -4.6846 H   0  0  0  0  0  0
    2.7749    0.3414   -5.3545 H   0  0  0  0  0  0
    2.1470    3.1742   -1.4845 H   0  0  0  0  0  0
    0.5547    2.4661   -1.4213 H   0  0  0  0  0  0
    1.7949    2.0813    0.7204 H   0  0  0  0  0  0
    3.1402    1.4407   -0.1724 H   0  0  0  0  0  0
  1  2  1  0  0  0
  1 24  1  0  0  0
  1 25  1  0  0  0
  1 26  1  0  0  0
  2  3  1  0  0  0
  2 27  1  0  0  0
  2 28  1  0  0  0
  3  4  1  0  0  0
  4  5  2  0  0  0
  4  6  1  0  0  0
  6 23  1  0  0  0
  6  7  1  0  0  0
  6 15  1  0  0  0
  7  8  1  0  0  0
  7 29  1  0  0  0
  7 30  1  0  0  0
  8 13  1  0  0  0
  8  9  2  0  0  0
  9 10  1  0  0  0
  9 31  1  0  0  0
 10 11  2  0  0  0
 10 32  1  0  0  0
 11 12  1  0  0  0
 11 33  1  0  0  0
 12 13  2  0  0  0
 12 34  1  0  0  0
 13 14  1  0  0  0
 15 16  1  0  0  0
 15 35  1  0  0  0
 15 36  1  0  0  0
 16 17  1  0  0  0
 16 37  1  0  0  0
 16 38  1  0  0  0
 17 18  1  0  0  0
 17 22  1  0  0  0
 18 19  1  0  0  0
 18 20  2  0  0  0
 18 21  2  0  0  0
 19 39  1  0  0  0
 19 40  1  0  0  0
 19 41  1  0  0  0
 22 23  1  0  0  0
 22 42  1  0  0  0
 22 43  1  0  0  0
 23 44  1  0  0  0
 23 45  1  0  0  0
M  END
$$$$
46
                    3D
 Schrodinger Suite 2021-2.
 45 48  0  0  1  0            999 V2000
    4.4072    0.8667   -2.8452 C   0  0  0  0  0  0
    3.5058   -0.1294   -3.1154 C   0  0  0  0  0  0
    1.8701    0.3778   -2.7905 S   0  0  0  0  0  0
    2.4263    1.9449   -2.2591 C   0  0  0  0  0  0
    1.4605    2.9460   -1.8301 C   0  0  0  0  0  0
    1.3744    4.1854   -2.4214 C   0  0  0  0  0  0
    0.1114    5.2152   -1.8288 S   0  0  0  0  0  0
   -0.3680    3.9869   -0.6789 C   0  0  0  0  0  0
   -1.4157    4.1697    0.1767 N   0  0  0  0  0  0
   -1.6058    3.1174    0.9706 C   0  0  0  0  0  0
   -0.9002    1.9885    1.0337 N   0  0  0  0  0  0
    0.1537    1.8192    0.2032 C   0  0  0  0  0  0
    0.8721    0.6341    0.3916 N   0  0  0  0  0  0
    2.2265    0.8202    0.8990 C   0  0  0  0  0  0
    2.2645    1.0994    2.4114 C   0  0  0  0  0  0
    1.7877   -0.0909    3.2645 C   0  0  0  0  0  0
    1.7409    0.2309    4.7128 N   0  3  0  0  0  0
    0.8572   -0.6908    5.4662 C   0  0  0  0  0  0
    0.7965   -0.2903    6.9499 C   0  0  0  0  0  0
    2.1100   -0.2781    7.4938 O   0  0  0  0  0  0
    2.9470    0.6671    6.8398 C   0  0  0  0  0  0
    3.0789    0.3005    5.3515 C   0  0  0  0  0  0
    0.4714    2.8269   -0.7591 C   0  0  0  0  0  0
    3.7886    2.0580   -2.3640 C   0  0  0  0  0  0
    1.3255    1.1482    4.7923 H   0  0  0  0  0  0
    5.4758    0.7843   -2.9781 H   0  0  0  0  0  0
    3.7007   -1.1231   -3.4907 H   0  0  0  0  0  0
    1.9929    4.5506   -3.2282 H   0  0  0  0  0  0
   -2.4291    3.1955    1.6650 H   0  0  0  0  0  0
    0.3587   -0.0539    0.9230 H   0  0  0  0  0  0
    2.8078   -0.0730    0.6687 H   0  0  0  0  0  0
    2.7135    1.6433    0.3781 H   0  0  0  0  0  0
    3.2905    1.3527    2.6757 H   0  0  0  0  0  0
    1.6681    1.9837    2.6396 H   0  0  0  0  0  0
    0.7831   -0.3657    2.9400 H   0  0  0  0  0  0
    2.4161   -0.9664    3.0950 H   0  0  0  0  0  0
   -0.1476   -0.6720    5.0425 H   0  0  0  0  0  0
    1.2274   -1.7127    5.3700 H   0  0  0  0  0  0
    0.3287    0.6880    7.0722 H   0  0  0  0  0  0
    0.1906   -1.0048    7.5071 H   0  0  0  0  0  0
    2.5428    1.6737    6.9597 H   0  0  0  0  0  0
    3.9273    0.6594    7.3164 H   0  0  0  0  0  0
    3.5839   -0.6614    5.2497 H   0  0  0  0  0  0
    3.7025    1.0431    4.8553 H   0  0  0  0  0  0
    4.3563    2.9410   -2.1102 H   0  0  0  0  0  0
  1 24  1  0  0  0
  1  2  2  0  0  0
  1 26  1  0  0  0
  2  3  1  0  0  0
  2 27  1  0  0  0
  3  4  1  0  0  0
  4  5  1  0  0  0
  4 24  2  0  0  0
  5 23  1  0  0  0
  5  6  2  0  0  0
  6  7  1  0  0  0
  6 28  1  0  0  0
  7  8  1  0  0  0
  8 23  1  0  0  0
  8  9  2  0  0  0
  9 10  1  0  0  0
 10 11  2  0  0  0
 10 29  1  0  0  0
 11 12  1  0  0  0
 12 13  1  0  0  0
 12 23  2  0  0  0
 13 14  1  0  0  0
 13 30  1  0  0  0
 14 15  1  0  0  0
 14 31  1  0  0  0
 14 32  1  0  0  0
 15 16  1  0  0  0
 15 33  1  0  0  0
 15 34  1  0  0  0
 16 17  1  0  0  0
 16 35  1  0  0  0
 16 36  1  0  0  0
 17 25  1  0  0  0
 17 22  1  0  0  0
 17 18  1  0  0  0
 18 19  1  0  0  0
 18 37  1  0  0  0
 18 38  1  0  0  0
 19 20  1  0  0  0
 19 39  1  0  0  0
 19 40  1  0  0  0
 20 21  1  0  0  0
 21 22  1  0  0  0
 21 41  1  0  0  0
 21 42  1  0  0  0
 22 43  1  0  0  0
 22 44  1  0  0  0
 24 45  1  0  0  0
M  CHG  1  17   1
M  END
$$$$
47
                    3D
 Schrodinger Suite 2021-2.
 47 49  0  0  1  0            999 V2000
   -2.1003    1.6873   -0.3809 C   0  0  0  0  0  0
   -0.5820    1.4880   -0.4284 C   0  0  0  0  0  0
   -0.1347    0.2061    0.2970 C   0  0  0  0  0  0
    1.3260    0.0281    0.2279 N   0  0  0  0  0  0
    1.9380   -0.7050   -0.7431 C   0  0  0  0  0  0
    3.1540   -0.9062   -0.7450 O   0  0  0  0  0  0
    1.0880   -1.3149   -1.8786 C   0  0  0  0  0  0
    1.9283   -1.7769   -3.0375 C   0  0  0  0  0  0
    2.5107   -0.9886   -3.9990 C   0  0  0  0  0  0
    3.3989   -1.9317   -5.1620 S   0  0  0  0  0  0
    2.9317   -3.3975   -4.2952 C   0  0  0  0  0  0
    3.3449   -4.7291   -4.7434 C   0  0  0  0  0  0
    4.3714   -4.8932   -5.7030 C   0  0  0  0  0  0
    4.7564   -6.1810   -6.1244 C   0  0  0  0  0  0
    4.1204   -7.3179   -5.5924 C   0  0  0  0  0  0
    3.0992   -7.1660   -4.6364 C   0  0  0  0  0  0
    2.7146   -5.8788   -4.2136 C   0  0  0  0  0  0
    2.1704   -3.1414   -3.2253 N   0  0  0  0  0  0
    2.0568    0.6830    1.3380 C   0  0  2  0  0  0
    3.1020    1.7321    0.8902 C   0  0  0  0  0  0
    3.9098    2.1504    2.1235 C   0  0  0  0  0  0
    4.0136    0.6611    3.1893 S   0  0  0  0  0  0
    5.3156    0.0075    2.9883 O   0  0  0  0  0  0
    3.5407    1.0051    4.5388 O   0  0  0  0  0  0
    2.7238   -0.3047    2.3144 C   0  0  0  0  0  0
   -2.3884    2.6028   -0.8979 H   0  0  0  0  0  0
   -2.6214    0.8574   -0.8589 H   0  0  0  0  0  0
   -2.4560    1.7602    0.6473 H   0  0  0  0  0  0
   -0.2576    1.4700   -1.4687 H   0  0  0  0  0  0
   -0.0954    2.3526    0.0246 H   0  0  0  0  0  0
   -0.4596    0.2425    1.3378 H   0  0  0  0  0  0
   -0.6633   -0.6571   -0.1072 H   0  0  0  0  0  0
    0.5143   -2.1487   -1.4717 H   0  0  0  0  0  0
    0.3648   -0.5857   -2.2405 H   0  0  0  0  0  0
    2.4762    0.0868   -4.0886 H   0  0  0  0  0  0
    4.8809   -4.0401   -6.1249 H   0  0  0  0  0  0
    5.5419   -6.2962   -6.8567 H   0  0  0  0  0  0
    4.4162   -8.3048   -5.9165 H   0  0  0  0  0  0
    2.6094   -8.0369   -4.2266 H   0  0  0  0  0  0
    1.9270   -5.7839   -3.4805 H   0  0  0  0  0  0
    1.3475    1.2531    1.9402 H   0  0  0  0  0  0
    3.7958    1.3149    0.1625 H   0  0  0  0  0  0
    2.6293    2.5924    0.4158 H   0  0  0  0  0  0
    4.9091    2.5106    1.8789 H   0  0  0  0  0  0
    3.3863    2.9268    2.6816 H   0  0  0  0  0  0
    2.0193   -0.7210    3.0345 H   0  0  0  0  0  0
    3.2212   -1.1311    1.8084 H   0  0  0  0  0  0
  1  2  1  0  0  0
  1 26  1  0  0  0
  1 27  1  0  0  0
  1 28  1  0  0  0
  2  3  1  0  0  0
  2 29  1  0  0  0
  2 30  1  0  0  0
  3  4  1  0  0  0
  3 31  1  0  0  0
  3 32  1  0  0  0
  4  5  1  0  0  0
  4 19  1  0  0  0
  5  6  2  0  0  0
  5  7  1  0  0  0
  7  8  1  0  0  0
  7 33  1  0  0  0
  7 34  1  0  0  0
  8 18  1  0  0  0
  8  9  2  0  0  0
  9 10  1  0  0  0
  9 35  1  0  0  0
 10 11  1  0  0  0
 11 12  1  0  0  0
 11 18  2  0  0  0
 12 17  1  0  0  0
 12 13  2  0  0  0
 13 14  1  0  0  0
 13 36  1  0  0  0
 14 15  2  0  0  0
 14 37  1  0  0  0
 15 16  1  0  0  0
 15 38  1  0  0  0
 16 17  2  0  0  0
 16 39  1  0  0  0
 17 40  1  0  0  0
 19 25  1  0  0  0
 19 20  1  0  0  0
 19 41  1  0  0  0
 20 21  1  0  0  0
 20 42  1  0  0  0
 20 43  1  0  0  0
 21 22  1  0  0  0
 21 44  1  0  0  0
 21 45  1  0  0  0
 22 23  2  0  0  0
 22 24  2  0  0  0
 22 25  1  0  0  0
 25 46  1  0  0  0
 25 47  1  0  0  0
M  END
$$$$
48
                    3D
 Schrodinger Suite 2021-2.
 48 49  0  0  1  0            999 V2000
   -0.1938   -0.1949   -3.5671 C   0  0  0  0  0  0
    0.0021    0.3702   -2.2833 O   0  0  0  0  0  0
   -0.4907   -0.4565   -1.2392 C   0  0  0  0  0  0
   -0.1508    0.1719    0.1268 C   0  0  1  0  0  0
   -0.8268   -0.6086    1.1623 N   0  0  0  0  0  0
   -1.1160   -0.1704    2.3974 C   0  0  0  0  0  0
   -1.8124   -1.1647    3.3195 C   0  0  0  0  0  0
   -0.8485    0.9622    2.7978 O   0  0  0  0  0  0
    1.3743    0.1017    0.3159 C   0  0  0  0  0  0
    1.9190   -0.9486    0.6606 O   0  0  0  0  0  0
    2.0530    1.2268    0.0456 N   0  0  0  0  0  0
    3.5069    1.3436    0.0438 C   0  0  0  0  0  0
    4.1592    0.7999   -1.2205 C   0  0  0  0  0  0
    3.5340    0.9401   -2.4802 C   0  0  0  0  0  0
    4.1476    0.4298   -3.6400 C   0  0  0  0  0  0
    5.3954   -0.2194   -3.5514 C   0  0  0  0  0  0
    6.0265   -0.7468   -4.7493 C   0  0  0  0  0  0
    6.5423   -1.1834   -5.7664 C   0  0  0  0  0  0
    7.1419   -1.6935   -6.9880 C   0  0  0  0  0  0
    7.3390   -3.0804   -7.1536 C   0  0  0  0  0  0
    7.9186   -3.5737   -8.3391 C   0  0  0  0  0  0
    8.3012   -2.6826   -9.3607 C   0  0  0  0  0  0
    8.1049   -1.2974   -9.1970 C   0  0  0  0  0  0
    8.4723   -0.4411  -10.1794 F   0  0  0  0  0  0
    7.5261   -0.8026   -8.0118 C   0  0  0  0  0  0
    6.0281   -0.3529   -2.2986 C   0  0  0  0  0  0
    5.4123    0.1570   -1.1387 C   0  0  0  0  0  0
   -0.4964    1.2073    0.1549 H   0  0  0  0  0  0
    0.1935    0.4829   -4.3276 H   0  0  0  0  0  0
    0.3350   -1.1440   -3.6636 H   0  0  0  0  0  0
   -1.2529   -0.3608   -3.7689 H   0  0  0  0  0  0
   -1.5726   -0.5499   -1.3472 H   0  0  0  0  0  0
   -0.0742   -1.4631   -1.3191 H   0  0  0  0  0  0
   -1.0763   -1.5577    0.9250 H   0  0  0  0  0  0
   -1.1655   -2.0208    3.5126 H   0  0  0  0  0  0
   -2.0589   -0.7003    4.2750 H   0  0  0  0  0  0
   -2.7367   -1.5235    2.8659 H   0  0  0  0  0  0
    1.5280    2.0437   -0.2312 H   0  0  0  0  0  0
    3.7637    2.3991    0.1338 H   0  0  0  0  0  0
    3.9205    0.8487    0.9244 H   0  0  0  0  0  0
    2.5797    1.4384   -2.5663 H   0  0  0  0  0  0
    3.6548    0.5409   -4.5954 H   0  0  0  0  0  0
    7.0470   -3.7710   -6.3754 H   0  0  0  0  0  0
    8.0691   -4.6357   -8.4650 H   0  0  0  0  0  0
    8.7448   -3.0613  -10.2696 H   0  0  0  0  0  0
    7.3790    0.2616   -7.8945 H   0  0  0  0  0  0
    6.9862   -0.8462   -2.2200 H   0  0  0  0  0  0
    5.9048    0.0480   -0.1835 H   0  0  0  0  0  0
  1  2  1  0  0  0
  1 29  1  0  0  0
  1 30  1  0  0  0
  1 31  1  0  0  0
  2  3  1  0  0  0
  3  4  1  0  0  0
  3 32  1  0  0  0
  3 33  1  0  0  0
  4 28  1  0  0  0
  4  5  1  0  0  0
  4  9  1  0  0  0
  5  6  1  0  0  0
  5 34  1  0  0  0
  6  7  1  0  0  0
  6  8  2  0  0  0
  7 35  1  0  0  0
  7 36  1  0  0  0
  7 37  1  0  0  0
  9 10  2  0  0  0
  9 11  1  0  0  0
 11 12  1  0  0  0
 11 38  1  0  0  0
 12 13  1  0  0  0
 12 39  1  0  0  0
 12 40  1  0  0  0
 13 27  1  0  0  0
 13 14  2  0  0  0
 14 15  1  0  0  0
 14 41  1  0  0  0
 15 16  2  0  0  0
 15 42  1  0  0  0
 16 17  1  0  0  0
 16 26  1  0  0  0
 17 18  3  0  0  0
 18 19  1  0  0  0
 19 25  1  0  0  0
 19 20  2  0  0  0
 20 21  1  0  0  0
 20 43  1  0  0  0
 21 22  2  0  0  0
 21 44  1  0  0  0
 22 23  1  0  0  0
 22 45  1  0  0  0
 23 24  1  0  0  0
 23 25  2  0  0  0
 25 46  1  0  0  0
 26 27  2  0  0  0
 26 47  1  0  0  0
 27 48  1  0  0  0
M  END
$$$$
49
                    3D
 Schrodinger Suite 2021-2.
 53 55  0  0  1  0            999 V2000
   -0.4061    2.7212    0.1598 C   0  0  0  0  0  0
   -0.7566    1.2669    0.0568 C   0  0  0  0  0  0
    0.0616    0.1739   -0.0408 C   0  0  0  0  0  0
    1.5706    0.1913   -0.0799 C   0  0  0  0  0  0
    2.1112   -0.1680    1.2453 N   0  3  0  0  0  0
    3.5857   -0.1716    1.3481 C   0  0  0  0  0  0
    4.1968   -1.4177    0.6712 C   0  0  0  0  0  0
    5.7257   -1.4541    0.8317 C   0  0  0  0  0  0
    6.1365   -1.3751    2.3103 C   0  0  0  0  0  0
    5.5305   -0.1371    2.9886 C   0  0  0  0  0  0
    4.0020   -0.1104    2.8299 C   0  0  0  0  0  0
   -0.7757   -0.9836   -0.1066 C   0  0  0  0  0  0
   -0.3568   -2.4095   -0.2130 C   0  0  0  0  0  0
   -1.1446   -3.2702   -0.6600 O   0  0  0  0  0  0
    0.8034   -2.7207    0.1361 O   0  5  0  0  0  0
   -2.0864   -0.5635   -0.0418 C   0  0  0  0  0  0
   -3.3894   -1.3172   -0.0265 C   0  0  0  0  0  0
   -2.0746    0.8283    0.0265 N   0  0  0  0  0  0
   -3.2477    1.7037    0.0606 C   0  0  0  0  0  0
   -3.4198    2.4694   -1.2415 C   0  0  0  0  0  0
   -3.5384    1.7763   -2.4656 C   0  0  0  0  0  0
   -3.6884    2.4875   -3.6716 C   0  0  0  0  0  0
   -3.7268    3.8950   -3.6593 C   0  0  0  0  0  0
   -3.8692    4.5785   -4.8195 F   0  0  0  0  0  0
   -3.6171    4.5909   -2.4400 C   0  0  0  0  0  0
   -3.4650    3.8800   -1.2335 C   0  0  0  0  0  0
    1.7497    0.5013    1.9089 H   0  0  0  0  0  0
    1.7646   -1.0850    1.4925 H   0  0  0  0  0  0
    0.6304    2.8602    0.4646 H   0  0  0  0  0  0
   -0.5397    3.2195   -0.8003 H   0  0  0  0  0  0
   -1.0231    3.2316    0.8986 H   0  0  0  0  0  0
    1.9143   -0.5079   -0.8414 H   0  0  0  0  0  0
    1.9318    1.1758   -0.3755 H   0  0  0  0  0  0
    3.9637    0.7255    0.8548 H   0  0  0  0  0  0
    3.7652   -2.3218    1.1035 H   0  0  0  0  0  0
    3.9521   -1.4389   -0.3907 H   0  0  0  0  0  0
    6.1238   -2.3654    0.3844 H   0  0  0  0  0  0
    6.1702   -0.6221    0.2842 H   0  0  0  0  0  0
    5.8055   -2.2751    2.8300 H   0  0  0  0  0  0
    7.2233   -1.3512    2.3945 H   0  0  0  0  0  0
    5.7947   -0.1266    4.0464 H   0  0  0  0  0  0
    5.9597    0.7665    2.5536 H   0  0  0  0  0  0
    3.6034    0.7929    3.2934 H   0  0  0  0  0  0
    3.5684   -0.9526    3.3716 H   0  0  0  0  0  0
   -3.2601   -2.3872    0.1142 H   0  0  0  0  0  0
   -4.0214   -0.9900    0.7983 H   0  0  0  0  0  0
   -3.9363   -1.1677   -0.9572 H   0  0  0  0  0  0
   -4.1570    1.1363    0.2462 H   0  0  0  0  0  0
   -3.1511    2.3892    0.9024 H   0  0  0  0  0  0
   -3.5075    0.6969   -2.4844 H   0  0  0  0  0  0
   -3.7723    1.9523   -4.6058 H   0  0  0  0  0  0
   -3.6476    5.6704   -2.4297 H   0  0  0  0  0  0
   -3.3779    4.4223   -0.3035 H   0  0  0  0  0  0
  1  2  1  0  0  0
  1 29  1  0  0  0
  1 30  1  0  0  0
  1 31  1  0  0  0
  2 18  1  0  0  0
  2  3  2  0  0  0
  3  4  1  0  0  0
  3 12  1  0  0  0
  4  5  1  0  0  0
  4 32  1  0  0  0
  4 33  1  0  0  0
  5 27  1  0  0  0
  5 28  1  0  0  0
  5  6  1  0  0  0
  6 11  1  0  0  0
  6  7  1  0  0  0
  6 34  1  0  0  0
  7  8  1  0  0  0
  7 35  1  0  0  0
  7 36  1  0  0  0
  8  9  1  0  0  0
  8 37  1  0  0  0
  8 38  1  0  0  0
  9 10  1  0  0  0
  9 39  1  0  0  0
  9 40  1  0  0  0
 10 11  1  0  0  0
 10 41  1  0  0  0
 10 42  1  0  0  0
 11 43  1  0  0  0
 11 44  1  0  0  0
 12 13  1  0  0  0
 12 16  2  0  0  0
 13 14  2  0  0  0
 13 15  1  0  0  0
 16 17  1  0  0  0
 16 18  1  0  0  0
 17 45  1  0  0  0
 17 46  1  0  0  0
 17 47  1  0  0  0
 18 19  1  0  0  0
 19 20  1  0  0  0
 19 48  1  0  0  0
 19 49  1  0  0  0
 20 26  1  0  0  0
 20 21  2  0  0  0
 21 22  1  0  0  0
 21 50  1  0  0  0
 22 23  2  0  0  0
 22 51  1  0  0  0
 23 24  1  0  0  0
 23 25  1  0  0  0
 25 26  2  0  0  0
 25 52  1  0  0  0
 26 53  1  0  0  0
M  CHG  2   5   1  15  -1
M  END
$$$$
50
                    3D
 Schrodinger Suite 2021-2.
 47 50  0  0  1  0            999 V2000
   -2.8582    2.4280    2.2390 O   0  0  0  0  0  0
   -2.9856    3.0792    1.2000 C   0  0  0  0  0  0
   -2.8796    2.3639   -0.1688 C   0  0  2  0  0  0
   -4.2619    1.8051   -0.5687 C   0  0  0  0  0  0
   -4.2658    0.3449   -0.1113 C   0  0  0  0  0  0
   -2.8030   -0.0071   -0.0416 C   0  0  0  0  0  0
   -2.2351   -1.2192    0.0273 C   0  0  0  0  0  0
   -0.7901   -1.2850    0.0581 C   0  0  0  0  0  0
   -0.0345   -0.1549    0.0034 C   0  0  0  0  0  0
    1.3439   -0.1481    0.0235 O   0  0  0  0  0  0
    2.0302   -1.3919    0.0893 C   0  0  0  0  0  0
    3.5298   -1.1809    0.0543 C   0  0  0  0  0  0
    4.1995   -1.0811   -1.1830 C   0  0  0  0  0  0
    5.5924   -0.8749   -1.2192 C   0  0  0  0  0  0
    6.3197   -0.7652   -0.0181 C   0  0  0  0  0  0
    7.6583   -0.5644   -0.0530 F   0  0  0  0  0  0
    5.6537   -0.8622    1.2192 C   0  0  0  0  0  0
    4.2606   -1.0687    1.2558 C   0  0  0  0  0  0
   -0.6781    1.1674   -0.0849 C   0  0  0  0  0  0
   -0.0396    2.2186   -0.1454 O   0  0  0  0  0  0
   -2.0410    1.1621   -0.0944 N   0  0  0  0  0  0
   -3.2332    4.4060    1.2203 N   0  0  0  0  0  0
   -3.3465    5.1831    2.4534 C   0  0  0  0  0  0
   -3.3757    6.6488    2.0201 C   0  0  0  0  0  0
   -3.9204    6.6049    0.5995 C   0  0  0  0  0  0
   -3.4313    5.2638    0.0525 C   0  0  0  0  0  0
   -2.4964    3.0325   -0.9404 H   0  0  0  0  0  0
   -5.1031    2.3691   -0.1622 H   0  0  0  0  0  0
   -4.3542    1.8392   -1.6551 H   0  0  0  0  0  0
   -4.7086    0.2367    0.8794 H   0  0  0  0  0  0
   -4.8043   -0.2988   -0.8074 H   0  0  0  0  0  0
   -2.8350   -2.1170    0.0534 H   0  0  0  0  0  0
   -0.3435   -2.2647    0.1250 H   0  0  0  0  0  0
    1.7680   -1.9220    1.0064 H   0  0  0  0  0  0
    1.7519   -2.0266   -0.7538 H   0  0  0  0  0  0
    3.6459   -1.1599   -2.1072 H   0  0  0  0  0  0
    6.1020   -0.7989   -2.1684 H   0  0  0  0  0  0
    6.2108   -0.7763    2.1405 H   0  0  0  0  0  0
    3.7551   -1.1376    2.2079 H   0  0  0  0  0  0
   -4.2761    4.9138    2.9572 H   0  0  0  0  0  0
   -2.5202    4.9897    3.1393 H   0  0  0  0  0  0
   -3.9730    7.2743    2.6839 H   0  0  0  0  0  0
   -2.3599    7.0468    2.0086 H   0  0  0  0  0  0
   -5.0107    6.6126    0.6270 H   0  0  0  0  0  0
   -3.5951    7.4523   -0.0046 H   0  0  0  0  0  0
   -2.4775    5.3900   -0.4616 H   0  0  0  0  0  0
   -4.1491    4.8436   -0.6533 H   0  0  0  0  0  0
  1  2  2  0  0  0
  2  3  1  0  0  0
  2 22  1  0  0  0
  3 27  1  0  0  0
  3 21  1  0  0  0
  3  4  1  0  0  0
  4  5  1  0  0  0
  4 28  1  0  0  0
  4 29  1  0  0  0
  5  6  1  0  0  0
  5 30  1  0  0  0
  5 31  1  0  0  0
  6 21  1  0  0  0
  6  7  2  0  0  0
  7  8  1  0  0  0
  7 32  1  0  0  0
  8  9  2  0  0  0
  8 33  1  0  0  0
  9 10  1  0  0  0
  9 19  1  0  0  0
 10 11  1  0  0  0
 11 12  1  0  0  0
 11 34  1  0  0  0
 11 35  1  0  0  0
 12 18  1  0  0  0
 12 13  2  0  0  0
 13 14  1  0  0  0
 13 36  1  0  0  0
 14 15  2  0  0  0
 14 37  1  0  0  0
 15 16  1  0  0  0
 15 17  1  0  0  0
 17 18  2  0  0  0
 17 38  1  0  0  0
 18 39  1  0  0  0
 19 20  2  0  0  0
 19 21  1  0  0  0
 22 26  1  0  0  0
 22 23  1  0  0  0
 23 24  1  0  0  0
 23 40  1  0  0  0
 23 41  1  0  0  0
 24 25  1  0  0  0
 24 42  1  0  0  0
 24 43  1  0  0  0
 25 26  1  0  0  0
 25 44  1  0  0  0
 25 45  1  0  0  0
 26 46  1  0  0  0
 26 47  1  0  0  0
M  END
$$$$
51
                    3D
 Schrodinger Suite 2021-2.
 45 46  0  0  1  0            999 V2000
   -4.2371    2.2711   -0.4529 C   0  0  0  0  0  0
   -2.7752    2.2015   -0.5176 N   0  0  0  0  0  0
   -2.1928    2.8841   -1.6791 C   0  0  0  0  0  0
   -2.0879    1.4416    0.3756 C   0  0  0  0  0  0
   -2.6665    0.6935    1.1655 O   0  0  0  0  0  0
   -0.6312    1.5954    0.3792 C   0  0  0  0  0  0
    0.1114    0.4855    0.1580 C   0  0  0  0  0  0
    1.5784    0.3405    0.1782 C   0  0  0  0  0  0
    2.1839   -0.5440   -0.7370 C   0  0  0  0  0  0
    3.5833   -0.6963   -0.7701 C   0  0  0  0  0  0
    4.4099    0.0316    0.1115 C   0  0  0  0  0  0
    5.8697   -0.1598    0.0323 C   0  0  0  0  0  0
    6.7992    0.4665    0.7823 C   0  0  0  0  0  0
    8.2144    0.1860    0.6031 C   0  0  0  0  0  0
    8.6902   -0.6135   -0.2057 O   0  0  0  0  0  0
    8.9603    0.9204    1.4424 N   0  0  0  0  0  0
   10.3609    0.7643    1.3599 O   0  0  0  0  0  0
    3.8029    0.9165    1.0320 C   0  0  0  0  0  0
    2.4032    1.0680    1.0642 C   0  0  0  0  0  0
   -0.1119    2.9685    0.5982 C   0  0  0  0  0  0
    0.8367    3.5277   -0.2892 C   0  0  0  0  0  0
    1.3341    4.8285   -0.0828 C   0  0  0  0  0  0
    0.8879    5.5868    1.0154 C   0  0  0  0  0  0
    1.3648    6.8383    1.2139 F   0  0  0  0  0  0
   -0.0548    5.0416    1.9068 C   0  0  0  0  0  0
   -0.5507    3.7399    1.6995 C   0  0  0  0  0  0
   -4.5877    2.3739    0.5755 H   0  0  0  0  0  0
   -4.6266    3.1280   -1.0041 H   0  0  0  0  0  0
   -4.6786    1.3681   -0.8763 H   0  0  0  0  0  0
   -1.3212    2.3598   -2.0733 H   0  0  0  0  0  0
   -2.9069    2.9502   -2.5008 H   0  0  0  0  0  0
   -1.8991    3.9003   -1.4154 H   0  0  0  0  0  0
   -0.4127   -0.4427   -0.0272 H   0  0  0  0  0  0
    1.5739   -1.1089   -1.4269 H   0  0  0  0  0  0
    4.0212   -1.3788   -1.4841 H   0  0  0  0  0  0
    6.1955   -0.8782   -0.7074 H   0  0  0  0  0  0
    6.5014    1.1880    1.5282 H   0  0  0  0  0  0
    8.6956    1.6104    2.1306 H   0  0  0  0  0  0
   10.6876    1.3496    2.0259 H   0  0  0  0  0  0
    4.3940    1.4910    1.7279 H   0  0  0  0  0  0
    1.9693    1.7428    1.7867 H   0  0  0  0  0  0
    1.1852    2.9576   -1.1380 H   0  0  0  0  0  0
    2.0575    5.2445   -0.7682 H   0  0  0  0  0  0
   -0.3974    5.6216    2.7510 H   0  0  0  0  0  0
   -1.2704    3.3338    2.3955 H   0  0  0  0  0  0
  1  2  1  0  0  0
  1 27  1  0  0  0
  1 28  1  0  0  0
  1 29  1  0  0  0
  2  3  1  0  0  0
  2  4  1  0  0  0
  3 30  1  0  0  0
  3 31  1  0  0  0
  3 32  1  0  0  0
  4  5  2  0  0  0
  4  6  1  0  0  0
  6  7  2  0  0  0
  6 20  1  0  0  0
  7  8  1  0  0  0
  7 33  1  0  0  0
  8 19  1  0  0  0
  8  9  2  0  0  0
  9 10  1  0  0  0
  9 34  1  0  0  0
 10 11  2  0  0  0
 10 35  1  0  0  0
 11 12  1  0  0  0
 11 18  1  0  0  0
 12 13  2  0  0  0
 12 36  1  0  0  0
 13 14  1  0  0  0
 13 37  1  0  0  0
 14 15  2  0  0  0
 14 16  1  0  0  0
 16 17  1  0  0  0
 16 38  1  0  0  0
 17 39  1  0  0  0
 18 19  2  0  0  0
 18 40  1  0  0  0
 19 41  1  0  0  0
 20 26  1  0  0  0
 20 21  2  0  0  0
 21 22  1  0  0  0
 21 42  1  0  0  0
 22 23  2  0  0  0
 22 43  1  0  0  0
 23 24  1  0  0  0
 23 25  1  0  0  0
 25 26  2  0  0  0
 25 44  1  0  0  0
 26 45  1  0  0  0
M  END
$$$$
52
                    3D
 Schrodinger Suite 2021-2.
 48 50  0  0  1  0            999 V2000
    0.5300    2.0646    1.4362 C   0  0  0  0  0  0
   -0.0583    1.4292    0.1685 C   0  0  0  0  0  0
   -1.4928    1.9307   -0.0548 C   0  0  0  0  0  0
   -0.0282   -0.1160    0.1998 C   0  0  0  0  0  0
    1.3444   -0.6648    0.1107 N   0  0  2  0  0  0
    1.7922   -1.1649   -1.2137 C   0  0  2  0  0  0
    1.6076   -0.1546   -2.3674 C   0  0  0  0  0  0
    1.9080   -0.8880   -3.6773 C   0  0  0  0  0  0
    1.2719   -2.5910   -3.4415 S   0  0  0  0  0  0
   -0.0754   -2.6914   -4.0230 O   0  0  0  0  0  0
    2.3255   -3.5521   -3.8015 O   0  0  0  0  0  0
    1.1225   -2.4923   -1.6156 C   0  0  0  0  0  0
    2.0362   -1.3853    1.5387 S   0  0  0  0  0  0
    1.5321   -0.6533    2.7113 O   0  0  0  0  0  0
    1.8425   -2.8408    1.4463 O   0  0  0  0  0  0
    3.7815   -1.0152    1.3753 C   0  0  0  0  0  0
    4.6634   -2.0060    0.8974 C   0  0  0  0  0  0
    6.0334   -1.7131    0.7564 C   0  0  0  0  0  0
    6.5220   -0.4342    1.0960 C   0  0  0  0  0  0
    7.8931   -0.1368    0.9530 C   0  0  0  0  0  0
    8.3774    1.1409    1.2943 C   0  0  0  0  0  0
    7.4944    2.1248    1.7796 C   0  0  0  0  0  0
    6.1238    1.8344    1.9247 C   0  0  0  0  0  0
    5.6326    0.5571    1.5835 C   0  0  0  0  0  0
    4.2613    0.2624    1.7250 C   0  0  0  0  0  0
    0.0041    1.7303    2.3311 H   0  0  0  0  0  0
    1.5821    1.8126    1.5487 H   0  0  0  0  0  0
    0.4639    3.1521    1.3984 H   0  0  0  0  0  0
    0.5354    1.7777   -0.6759 H   0  0  0  0  0  0
   -2.1505    1.6235    0.7589 H   0  0  0  0  0  0
   -1.5252    3.0188   -0.1169 H   0  0  0  0  0  0
   -1.9071    1.5390   -0.9843 H   0  0  0  0  0  0
   -0.5089   -0.4789    1.1089 H   0  0  0  0  0  0
   -0.6353   -0.5113   -0.6139 H   0  0  0  0  0  0
    2.8632   -1.3558   -1.1575 H   0  0  0  0  0  0
    0.5778    0.1975   -2.4159 H   0  0  0  0  0  0
    2.2444    0.7219   -2.2447 H   0  0  0  0  0  0
    1.4413   -0.4249   -4.5467 H   0  0  0  0  0  0
    2.9832   -0.9490   -3.8471 H   0  0  0  0  0  0
    1.6030   -3.3593   -1.1623 H   0  0  0  0  0  0
    0.0626   -2.5200   -1.3658 H   0  0  0  0  0  0
    4.2960   -2.9859    0.6307 H   0  0  0  0  0  0
    6.7054   -2.4732    0.3852 H   0  0  0  0  0  0
    8.5783   -0.8852    0.5820 H   0  0  0  0  0  0
    9.4279    1.3664    1.1840 H   0  0  0  0  0  0
    7.8689    3.1036    2.0406 H   0  0  0  0  0  0
    5.4540    2.5957    2.2977 H   0  0  0  0  0  0
    3.5833    1.0128    2.1010 H   0  0  0  0  0  0
  1  2  1  0  0  0
  1 26  1  0  0  0
  1 27  1  0  0  0
  1 28  1  0  0  0
  2  3  1  0  0  0
  2  4  1  0  0  0
  2 29  1  0  0  0
  3 30  1  0  0  0
  3 31  1  0  0  0
  3 32  1  0  0  0
  4  5  1  0  0  0
  4 33  1  0  0  0
  4 34  1  0  0  0
  5  6  1  0  0  0
  5 13  1  0  0  0
  6 12  1  0  0  0
  6  7  1  0  0  0
  6 35  1  0  0  0
  7  8  1  0  0  0
  7 36  1  0  0  0
  7 37  1  0  0  0
  8  9  1  0  0  0
  8 38  1  0  0  0
  8 39  1  0  0  0
  9 10  2  0  0  0
  9 11  2  0  0  0
  9 12  1  0  0  0
 12 40  1  0  0  0
 12 41  1  0  0  0
 13 14  2  0  0  0
 13 15  2  0  0  0
 13 16  1  0  0  0
 16 25  1  0  0  0
 16 17  2  0  0  0
 17 18  1  0  0  0
 17 42  1  0  0  0
 18 19  2  0  0  0
 18 43  1  0  0  0
 19 24  1  0  0  0
 19 20  1  0  0  0
 20 21  2  0  0  0
 20 44  1  0  0  0
 21 22  1  0  0  0
 21 45  1  0  0  0
 22 23  2  0  0  0
 22 46  1  0  0  0
 23 24  1  0  0  0
 23 47  1  0  0  0
 24 25  2  0  0  0
 25 48  1  0  0  0
M  END
$$$$
53
                    3D
 Schrodinger Suite 2021-2.
 51 52  0  0  1  0            999 V2000
   -2.0129   -3.0667    0.0559 C   0  0  0  0  0  0
   -1.8069   -1.5807    0.3579 C   0  0  0  0  0  0
   -0.4365   -1.2627    0.1875 O   0  0  0  0  0  0
    0.0156   -0.0352    0.5075 C   0  0  0  0  0  0
   -0.6909    0.8873    0.9188 O   0  0  0  0  0  0
    1.5364    0.1357    0.2408 C   0  0  1  0  0  0
    1.7436    0.1318   -1.3148 C   0  0  0  0  0  0
    2.6169    1.2447   -1.8863 C   0  0  0  0  0  0
    4.0129    1.0404   -1.9494 C   0  0  0  0  0  0
    4.8599    2.0392   -2.4639 C   0  0  0  0  0  0
    4.3154    3.2513   -2.9240 C   0  0  0  0  0  0
    2.9249    3.4620   -2.8711 C   0  0  0  0  0  0
    2.0674    2.4661   -2.3562 C   0  0  0  0  0  0
    0.5716    2.7318   -2.3234 C   0  0  0  0  0  0
    2.0834    1.4218    0.9394 C   0  0  0  0  0  0
    2.0214    1.3407    2.4771 C   0  0  0  0  0  0
    2.7157    0.0767    3.0043 C   0  0  0  0  0  0
    2.1986   -1.1193    2.3192 N   0  0  2  0  0  0
    2.2654   -2.6508    3.1302 S   0  0  0  0  0  0
    1.7790   -3.6803    2.1983 O   0  0  0  0  0  0
    3.6004   -2.7721    3.7354 O   0  0  0  0  0  0
    1.0102   -2.4581    4.4706 C   0  0  0  0  0  0
   -0.4134   -2.4129    3.9043 C   0  0  0  0  0  0
    2.3244   -1.0620    0.8489 C   0  0  0  0  0  0
   -3.0595   -3.3462    0.1759 H   0  0  0  0  0  0
   -1.7180   -3.3033   -0.9667 H   0  0  0  0  0  0
   -1.4210   -3.6880    0.7290 H   0  0  0  0  0  0
   -2.4141   -0.9699   -0.3113 H   0  0  0  0  0  0
   -2.1195   -1.3620    1.3799 H   0  0  0  0  0  0
    2.1856   -0.8155   -1.6273 H   0  0  0  0  0  0
    0.7933    0.1462   -1.8502 H   0  0  0  0  0  0
    4.4403    0.1136   -1.5951 H   0  0  0  0  0  0
    5.9266    1.8751   -2.5051 H   0  0  0  0  0  0
    4.9636    4.0192   -3.3197 H   0  0  0  0  0  0
    2.5187    4.3960   -3.2307 H   0  0  0  0  0  0
    0.3471    3.7678   -2.5780 H   0  0  0  0  0  0
    0.0575    2.0925   -3.0413 H   0  0  0  0  0  0
    0.1607    2.5396   -1.3330 H   0  0  0  0  0  0
    3.1288    1.5760    0.6721 H   0  0  0  0  0  0
    1.5523    2.3114    0.6002 H   0  0  0  0  0  0
    2.4931    2.2236    2.9089 H   0  0  0  0  0  0
    0.9891    1.3577    2.8255 H   0  0  0  0  0  0
    3.7928    0.1375    2.8435 H   0  0  0  0  0  0
    2.5640   -0.0080    4.0793 H   0  0  0  0  0  0
    1.1132   -3.3103    5.1424 H   0  0  0  0  0  0
    1.2348   -1.5629    5.0481 H   0  0  0  0  0  0
   -1.1465   -2.3170    4.7052 H   0  0  0  0  0  0
   -0.5409   -1.5619    3.2355 H   0  0  0  0  0  0
   -0.6485   -3.3188    3.3456 H   0  0  0  0  0  0
    1.9871   -1.9999    0.4089 H   0  0  0  0  0  0
    3.3828   -0.9870    0.5951 H   0  0  0  0  0  0
  1  2  1  0  0  0
  1 25  1  0  0  0
  1 26  1  0  0  0
  1 27  1  0  0  0
  2  3  1  0  0  0
  2 28  1  0  0  0
  2 29  1  0  0  0
  3  4  1  0  0  0
  4  5  2  0  0  0
  4  6  1  0  0  0
  6 24  1  0  0  0
  6  7  1  0  0  0
  6 15  1  0  0  0
  7  8  1  0  0  0
  7 30  1  0  0  0
  7 31  1  0  0  0
  8 13  1  0  0  0
  8  9  2  0  0  0
  9 10  1  0  0  0
  9 32  1  0  0  0
 10 11  2  0  0  0
 10 33  1  0  0  0
 11 12  1  0  0  0
 11 34  1  0  0  0
 12 13  2  0  0  0
 12 35  1  0  0  0
 13 14  1  0  0  0
 14 36  1  0  0  0
 14 37  1  0  0  0
 14 38  1  0  0  0
 15 16  1  0  0  0
 15 39  1  0  0  0
 15 40  1  0  0  0
 16 17  1  0  0  0
 16 41  1  0  0  0
 16 42  1  0  0  0
 17 18  1  0  0  0
 17 43  1  0  0  0
 17 44  1  0  0  0
 18 19  1  0  0  0
 18 24  1  0  0  0
 19 20  2  0  0  0
 19 21  2  0  0  0
 19 22  1  0  0  0
 22 23  1  0  0  0
 22 45  1  0  0  0
 22 46  1  0  0  0
 23 47  1  0  0  0
 23 48  1  0  0  0
 23 49  1  0  0  0
 24 50  1  0  0  0
 24 51  1  0  0  0
M  END
$$$$
54
                    3D
 Schrodinger Suite 2021-2.
 49 53  0  0  1  0            999 V2000
   -4.8953    0.0203    1.3383 O   0  0  0  0  0  0
   -4.3705    0.0323    0.0289 C   0  0  0  0  0  0
   -2.8551    0.0291    0.0141 C   0  0  0  0  0  0
   -2.1413    1.2425    0.0054 C   0  0  0  0  0  0
   -0.7333    1.2363   -0.0049 C   0  0  0  0  0  0
   -0.0083    0.0202   -0.0052 C   0  0  0  0  0  0
    1.4697    0.0411   -0.0131 C   0  0  0  0  0  0
    2.2723    1.1592   -0.0023 C   0  0  0  0  0  0
    3.9704    0.7758   -0.0093 S   0  0  0  0  0  0
    3.6151   -0.9283   -0.0283 C   0  0  0  0  0  0
    4.6979   -1.9044   -0.0316 C   0  0  0  0  0  0
    4.6479   -3.2708   -0.0605 C   0  0  0  0  0  0
    5.9702   -3.6639   -0.0380 N   0  0  0  0  0  0
    6.4904   -5.0290    0.0099 C   0  0  1  0  0  0
    7.8492   -5.2308   -0.7366 C   0  0  0  0  0  0
    8.8459   -5.8573    0.1754 N   0  3  2  0  0  0
    8.3651   -7.1937    0.6223 C   0  0  0  0  0  0
    7.0183   -7.0504    1.3802 C   0  0  0  0  0  0
    6.6252   -5.5581    1.4640 C   0  0  1  0  0  0
    7.7830   -4.8271    2.1832 C   0  0  0  0  0  0
    9.0858   -4.9771    1.3528 C   0  0  0  0  0  0
    6.7901   -2.5863    0.0226 N   0  0  0  0  0  0
    6.0426   -1.5305    0.0121 N   0  0  0  0  0  0
    2.2633   -1.1560   -0.0320 C   0  0  0  0  0  0
   -0.7400   -1.1929    0.0058 C   0  0  0  0  0  0
   -2.1483   -1.1885    0.0153 C   0  0  0  0  0  0
    5.7474   -5.6467   -0.4976 H   0  0  0  0  0  0
    9.7153   -5.9745   -0.3255 H   0  0  0  0  0  0
   -5.8386    0.0213    1.2844 H   0  0  0  0  0  0
   -4.7448   -0.8380   -0.5112 H   0  0  0  0  0  0
   -4.7429    0.9134   -0.4948 H   0  0  0  0  0  0
   -2.6716    2.1837    0.0087 H   0  0  0  0  0  0
   -0.2222    2.1866   -0.0108 H   0  0  0  0  0  0
    1.9752    2.1969    0.0119 H   0  0  0  0  0  0
    3.8210   -3.9651   -0.0865 H   0  0  0  0  0  0
    7.7037   -5.8782   -1.6024 H   0  0  0  0  0  0
    8.2650   -4.3053   -1.1341 H   0  0  0  0  0  0
    8.2504   -7.8500   -0.2413 H   0  0  0  0  0  0
    9.1167   -7.6546    1.2647 H   0  0  0  0  0  0
    6.2384   -7.6192    0.8721 H   0  0  0  0  0  0
    7.1039   -7.4765    2.3807 H   0  0  0  0  0  0
    5.6895   -5.4407    2.0120 H   0  0  0  0  0  0
    7.5482   -3.7749    2.3428 H   0  0  0  0  0  0
    7.9266   -5.2522    3.1775 H   0  0  0  0  0  0
    9.8832   -5.3962    1.9679 H   0  0  0  0  0  0
    9.4357   -4.0015    1.0127 H   0  0  0  0  0  0
    1.8415   -2.1483   -0.0430 H   0  0  0  0  0  0
   -0.2455   -2.1508    0.0095 H   0  0  0  0  0  0
   -2.6853   -2.1257    0.0261 H   0  0  0  0  0  0
  1  2  1  0  0  0
  1 29  1  0  0  0
  2  3  1  0  0  0
  2 30  1  0  0  0
  2 31  1  0  0  0
  3 26  1  0  0  0
  3  4  2  0  0  0
  4  5  1  0  0  0
  4 32  1  0  0  0
  5  6  2  0  0  0
  5 33  1  0  0  0
  6  7  1  0  0  0
  6 25  1  0  0  0
  7 24  1  0  0  0
  7  8  2  0  0  0
  8  9  1  0  0  0
  8 34  1  0  0  0
  9 10  1  0  0  0
 10 11  1  0  0  0
 10 24  2  0  0  0
 11 23  1  0  0  0
 11 12  2  0  0  0
 12 13  1  0  0  0
 12 35  1  0  0  0
 13 14  1  0  0  0
 13 22  1  0  0  0
 14 27  1  0  0  0
 14 19  1  0  0  0
 14 15  1  0  0  0
 15 16  1  0  0  0
 15 36  1  0  0  0
 15 37  1  0  0  0
 16 28  1  0  0  0
 16 21  1  0  0  0
 16 17  1  0  0  0
 17 18  1  0  0  0
 17 38  1  0  0  0
 17 39  1  0  0  0
 18 19  1  0  0  0
 18 40  1  0  0  0
 18 41  1  0  0  0
 19 20  1  0  0  0
 19 42  1  0  0  0
 20 21  1  0  0  0
 20 43  1  0  0  0
 20 44  1  0  0  0
 21 45  1  0  0  0
 21 46  1  0  0  0
 22 23  2  0  0  0
 24 47  1  0  0  0
 25 26  2  0  0  0
 25 48  1  0  0  0
 26 49  1  0  0  0
M  CHG  1  16   1
M  END
$$$$
55
                    3D
 Schrodinger Suite 2021-2.
 43 45  0  0  1  0            999 V2000
   -1.4181    4.0925   -1.2670 C   0  0  0  0  0  0
   -0.8518    3.7207    0.1113 C   0  0  0  0  0  0
    0.1727    4.7537    0.5977 C   0  0  0  0  0  0
   -0.2611    2.3941    0.0918 N   0  0  0  0  0  0
   -0.8139    1.1203    0.0228 C   0  0  0  0  0  0
   -2.1225    0.8792   -0.0180 N   0  0  0  0  0  0
   -2.1652   -0.5011   -0.0561 C   0  0  0  0  0  0
   -3.2716   -1.3774   -0.1027 C   0  0  0  0  0  0
   -3.0811   -2.7739   -0.1228 C   0  0  0  0  0  0
   -4.4629   -3.8095   -0.1768 Cl  0  0  0  0  0  0
   -1.7745   -3.3115   -0.0955 C   0  0  0  0  0  0
   -1.5189   -5.0198   -0.1126 Cl  0  0  0  0  0  0
   -0.6596   -2.4522   -0.0519 C   0  0  0  0  0  0
   -0.8521   -1.0562   -0.0359 C   0  0  0  0  0  0
    0.0027    0.0401    0.0061 N   0  0  0  0  0  0
    1.5070    0.0299    0.0450 C   0  0  2  0  0  0
    1.9958   -1.1102   -0.5969 O   0  0  0  0  0  0
    2.9880   -1.7530    0.2055 C   0  0  1  0  0  0
    4.1391   -2.2272   -0.6950 C   0  0  0  0  0  0
    5.0378   -3.0368    0.0327 O   0  0  0  0  0  0
    3.3804   -0.7013    1.2490 C   0  0  2  0  0  0
    3.9041   -1.2521    2.4419 O   0  0  0  0  0  0
    2.0699    0.0349    1.4731 C   0  0  2  0  0  0
    1.2246   -0.6195    2.4070 O   0  0  0  0  0  0
    2.5121   -2.6049    0.6939 H   0  0  0  0  0  0
    4.1115   -0.0121    0.8233 H   0  0  0  0  0  0
    2.2273    1.0615    1.8055 H   0  0  0  0  0  0
   -1.8849    5.0776   -1.2446 H   0  0  0  0  0  0
   -0.6356    4.1122   -2.0264 H   0  0  0  0  0  0
   -2.1775    3.3794   -1.5892 H   0  0  0  0  0  0
   -1.6762    3.6963    0.8251 H   0  0  0  0  0  0
   -0.2694    5.7490    0.6491 H   0  0  0  0  0  0
    0.5384    4.5055    1.5948 H   0  0  0  0  0  0
    1.0333    4.8061   -0.0705 H   0  0  0  0  0  0
    0.7478    2.4089    0.1198 H   0  0  0  0  0  0
   -4.2722   -0.9714   -0.1203 H   0  0  0  0  0  0
    0.3320   -2.8744   -0.0288 H   0  0  0  0  0  0
    1.8211    0.8987   -0.5348 H   0  0  0  0  0  0
    3.7459   -2.8178   -1.5227 H   0  0  0  0  0  0
    4.6727   -1.3809   -1.1282 H   0  0  0  0  0  0
    5.3807   -2.5312    0.7543 H   0  0  0  0  0  0
    3.2328   -1.7859    2.8399 H   0  0  0  0  0  0
    0.4061   -0.1493    2.4514 H   0  0  0  0  0  0
  1  2  1  0  0  0
  1 28  1  0  0  0
  1 29  1  0  0  0
  1 30  1  0  0  0
  2  3  1  0  0  0
  2  4  1  0  0  0
  2 31  1  0  0  0
  3 32  1  0  0  0
  3 33  1  0  0  0
  3 34  1  0  0  0
  4  5  1  0  0  0
  4 35  1  0  0  0
  5 15  1  0  0  0
  5  6  2  0  0  0
  6  7  1  0  0  0
  7 14  2  0  0  0
  7  8  1  0  0  0
  8  9  2  0  0  0
  8 36  1  0  0  0
  9 10  1  0  0  0
  9 11  1  0  0  0
 11 12  1  0  0  0
 11 13  2  0  0  0
 13 14  1  0  0  0
 13 37  1  0  0  0
 14 15  1  0  0  0
 15 16  1  0  0  0
 16 23  1  0  0  0
 16 17  1  0  0  0
 16 38  1  0  0  0
 17 18  1  0  0  0
 18 25  1  0  0  0
 18 19  1  0  0  0
 18 21  1  0  0  0
 19 20  1  0  0  0
 19 39  1  0  0  0
 19 40  1  0  0  0
 20 41  1  0  0  0
 21 26  1  0  0  0
 21 22  1  0  0  0
 21 23  1  0  0  0
 22 42  1  0  0  0
 23 27  1  0  0  0
 23 24  1  0  0  0
 24 43  1  0  0  0
M  END
$$$$
56
                    3D
 Schrodinger Suite 2021-2.
 42 44  0  0  1  0            999 V2000
    0.0162    2.9953    1.3695 C   0  0  0  0  0  0
    0.0238    2.3652    0.0976 O   0  0  0  0  0  0
   -0.6234    1.1552    0.0766 C   0  0  0  0  0  0
    0.1271   -0.0463    0.0646 C   0  0  0  0  0  0
    1.6054    0.0134    0.0681 C   0  0  0  0  0  0
    2.4540   -1.0297   -0.0336 C   0  0  0  0  0  0
    3.9729   -0.9584   -0.0249 C   0  0  0  0  0  0
    4.4614    0.3595    0.1247 O   0  0  0  0  0  0
   -0.5642   -1.2796    0.0461 C   0  0  0  0  0  0
   -1.9736   -1.3262    0.0226 C   0  0  0  0  0  0
   -2.6573   -2.5463    0.0009 N   0  0  0  0  0  0
   -2.0083   -4.1525    0.0128 S   0  0  0  0  0  0
   -1.2873   -4.3228   -1.2582 O   0  0  0  0  0  0
   -1.3393   -4.3231    1.3120 O   0  0  0  0  0  0
   -3.4162   -5.2351   -0.0130 C   0  0  0  0  0  0
   -4.0539   -5.7807    1.0703 C   0  0  0  0  0  0
   -5.1633   -6.5973    0.7004 C   0  0  0  0  0  0
   -5.3521   -6.6572   -0.6561 C   0  0  0  0  0  0
   -4.1674   -5.7072   -1.5140 S   0  0  0  0  0  0
   -2.7129   -0.1269    0.0045 C   0  0  0  0  0  0
   -2.0359    1.1184    0.0481 C   0  0  0  0  0  0
   -2.7370    2.3042    0.0456 O   0  0  0  0  0  0
   -4.1163    2.1851    0.3666 C   0  0  0  0  0  0
   -4.7230    1.0267   -0.4339 C   0  0  0  0  0  0
   -4.0885   -0.1871   -0.0550 O   0  0  0  0  0  0
    0.6359    3.8910    1.3339 H   0  0  0  0  0  0
   -0.9880    3.2964    1.6684 H   0  0  0  0  0  0
    0.4248    2.3365    2.1373 H   0  0  0  0  0  0
    2.0316    1.0002    0.1670 H   0  0  0  0  0  0
    2.0691   -2.0320   -0.1360 H   0  0  0  0  0  0
    4.3544   -1.5742    0.7897 H   0  0  0  0  0  0
    4.3540   -1.3754   -0.9571 H   0  0  0  0  0  0
    5.4060    0.3327    0.1152 H   0  0  0  0  0  0
   -0.0158   -2.2075    0.0494 H   0  0  0  0  0  0
   -3.6639   -2.4726   -0.0226 H   0  0  0  0  0  0
   -3.7679   -5.6238    2.0998 H   0  0  0  0  0  0
   -5.7759   -7.1038    1.4314 H   0  0  0  0  0  0
   -6.1116   -7.1980   -1.2013 H   0  0  0  0  0  0
   -4.2350    2.0230    1.4388 H   0  0  0  0  0  0
   -4.6180    3.1215    0.1224 H   0  0  0  0  0  0
   -5.7916    0.9440   -0.2348 H   0  0  0  0  0  0
   -4.6037    1.1889   -1.5061 H   0  0  0  0  0  0
  1  2  1  0  0  0
  1 26  1  0  0  0
  1 27  1  0  0  0
  1 28  1  0  0  0
  2  3  1  0  0  0
  3 21  1  0  0  0
  3  4  2  0  0  0
  4  5  1  0  0  0
  4  9  1  0  0  0
  5  6  2  0  0  0
  5 29  1  0  0  0
  6  7  1  0  0  0
  6 30  1  0  0  0
  7  8  1  0  0  0
  7 31  1  0  0  0
  7 32  1  0  0  0
  8 33  1  0  0  0
  9 10  2  0  0  0
  9 34  1  0  0  0
 10 11  1  0  0  0
 10 20  1  0  0  0
 11 12  1  0  0  0
 11 35  1  0  0  0
 12 13  2  0  0  0
 12 14  2  0  0  0
 12 15  1  0  0  0
 15 19  1  0  0  0
 15 16  2  0  0  0
 16 17  1  0  0  0
 16 36  1  0  0  0
 17 18  2  0  0  0
 17 37  1  0  0  0
 18 19  1  0  0  0
 18 38  1  0  0  0
 20 25  1  0  0  0
 20 21  2  0  0  0
 21 22  1  0  0  0
 22 23  1  0  0  0
 23 24  1  0  0  0
 23 39  1  0  0  0
 23 40  1  0  0  0
 24 25  1  0  0  0
 24 41  1  0  0  0
 24 42  1  0  0  0
M  END
$$$$
57
                    3D
 Schrodinger Suite 2021-2.
 44 45  0  0  1  0            999 V2000
   -1.8623   -5.7508    0.1449 C   0  0  0  0  0  0
   -0.7074   -4.8258   -0.2465 C   0  0  0  0  0  0
   -1.1109   -3.4776   -0.0700 O   0  0  0  0  0  0
   -0.2669   -2.4719   -0.3750 C   0  0  0  0  0  0
    0.8747   -2.6596   -0.7989 O   0  0  0  0  0  0
   -0.8830   -1.1277   -0.1604 C   0  0  0  0  0  0
   -0.1527    0.0142   -0.1237 C   0  0  0  0  0  0
    1.3477    0.1694   -0.3165 C   0  0  0  0  0  0
    2.0553   -0.3652    0.7910 O   0  0  0  0  0  0
    3.4003   -0.4513    0.7578 C   0  0  0  0  0  0
    4.0720   -0.0607   -0.1979 O   0  0  0  0  0  0
    3.9628   -1.0649    2.0051 C   0  0  0  0  0  0
    3.1826   -1.0752    3.1893 C   0  0  0  0  0  0
    3.7032   -1.6361    4.3698 C   0  0  0  0  0  0
    4.9995   -2.1767    4.3374 C   0  0  0  0  0  0
    5.7626   -2.1865    3.2276 N   0  0  0  0  0  0
    5.2616   -1.6487    2.0924 C   0  0  0  0  0  0
    6.3719   -1.7829    0.7092 S   0  0  0  0  0  0
    7.8982   -2.5768    1.2893 C   0  0  0  0  0  0
   -0.7820    1.2434    0.1014 N   0  0  0  0  0  0
   -2.0828    1.4117    0.4143 C   0  0  0  0  0  0
   -2.5584    2.5174    0.6573 O   0  0  0  0  0  0
   -2.8167    0.2842    0.4835 N   0  0  0  0  0  0
   -2.4024   -1.0497    0.0387 C   0  0  1  0  0  0
   -3.1794   -1.4023   -1.2436 C   0  0  0  0  0  0
   -1.5833   -6.7963    0.0132 H   0  0  0  0  0  0
   -2.1428   -5.6086    1.1888 H   0  0  0  0  0  0
   -2.7427   -5.5596   -0.4691 H   0  0  0  0  0  0
    0.1680   -5.0352    0.3695 H   0  0  0  0  0  0
   -0.4287   -4.9959   -1.2873 H   0  0  0  0  0  0
    1.6494   -0.3169   -1.2449 H   0  0  0  0  0  0
    1.6004    1.2260   -0.4190 H   0  0  0  0  0  0
    2.1897   -0.6508    3.2178 H   0  0  0  0  0  0
    3.1220   -1.6480    5.2800 H   0  0  0  0  0  0
    5.4339   -2.6146    5.2238 H   0  0  0  0  0  0
    8.6030   -2.6775    0.4642 H   0  0  0  0  0  0
    8.3674   -1.9793    2.0714 H   0  0  0  0  0  0
    7.6880   -3.5706    1.6849 H   0  0  0  0  0  0
   -0.1934    2.0634    0.0685 H   0  0  0  0  0  0
   -3.7809    0.3809    0.7675 H   0  0  0  0  0  0
   -2.6922   -1.7328    0.8380 H   0  0  0  0  0  0
   -2.9845   -2.4225   -1.5737 H   0  0  0  0  0  0
   -4.2548   -1.3171   -1.0849 H   0  0  0  0  0  0
   -2.9120   -0.7339   -2.0628 H   0  0  0  0  0  0
  1  2  1  0  0  0
  1 26  1  0  0  0
  1 27  1  0  0  0
  1 28  1  0  0  0
  2  3  1  0  0  0
  2 29  1  0  0  0
  2 30  1  0  0  0
  3  4  1  0  0  0
  4  5  2  0  0  0
  4  6  1  0  0  0
  6 24  1  0  0  0
  6  7  2  0  0  0
  7  8  1  0  0  0
  7 20  1  0  0  0
  8  9  1  0  0  0
  8 31  1  0  0  0
  8 32  1  0  0  0
  9 10  1  0  0  0
 10 11  2  0  0  0
 10 12  1  0  0  0
 12 17  1  0  0  0
 12 13  2  0  0  0
 13 14  1  0  0  0
 13 33  1  0  0  0
 14 15  2  0  0  0
 14 34  1  0  0  0
 15 16  1  0  0  0
 15 35  1  0  0  0
 16 17  2  0  0  0
 17 18  1  0  0  0
 18 19  1  0  0  0
 19 36  1  0  0  0
 19 37  1  0  0  0
 19 38  1  0  0  0
 20 21  1  0  0  0
 20 39  1  0  0  0
 21 22  2  0  0  0
 21 23  1  0  0  0
 23 24  1  0  0  0
 23 40  1  0  0  0
 24 25  1  0  0  0
 24 41  1  0  0  0
 25 42  1  0  0  0
 25 43  1  0  0  0
 25 44  1  0  0  0
M  END
$$$$
58
                    3D
 Schrodinger Suite 2021-2.
 50 52  0  0  1  0            999 V2000
   -2.2116   -3.0417   -2.6307 C   0  0  0  0  0  0
   -2.1002   -3.4638   -1.1609 C   0  0  0  0  0  0
   -2.7346   -2.5042   -0.2653 N   0  0  0  0  0  0
   -2.0920   -1.3098    0.1090 C   0  0  0  0  0  0
   -0.7861   -1.1506   -0.2148 N   0  0  0  0  0  0
   -0.1834   -0.0155    0.1522 C   0  0  0  0  0  0
    1.1541    0.1380   -0.1581 N   0  0  0  0  0  0
    2.0754   -0.7250   -0.7649 C   0  0  0  0  0  0
    3.2159   -1.1105   -0.0329 C   0  0  0  0  0  0
    4.1669   -1.9807   -0.5951 C   0  0  0  0  0  0
    5.2508   -2.3406    0.1347 F   0  0  0  0  0  0
    3.9914   -2.4630   -1.9095 C   0  0  0  0  0  0
    4.9798   -3.4276   -2.5029 C   0  0  0  0  0  0
    5.2219   -4.4719   -1.8966 O   0  0  0  0  0  0
    5.5429   -3.1217   -3.6984 N   0  0  0  0  0  0
    5.5741   -1.7965   -4.3311 C   0  0  0  0  0  0
    7.0331   -1.3053   -4.3743 C   0  0  0  0  0  0
    7.8462   -2.2502   -5.0640 O   0  0  0  0  0  0
    7.8247   -3.5415   -4.4630 C   0  0  0  0  0  0
    6.3801   -4.0684   -4.4410 C   0  0  0  0  0  0
    2.8467   -2.0771   -2.6419 C   0  0  0  0  0  0
    1.8868   -1.1925   -2.0885 C   0  0  0  0  0  0
    0.7776   -0.7496   -2.7807 O   0  0  0  0  0  0
    0.6332   -1.1320   -4.1407 C   0  0  0  0  0  0
   -0.7419    0.9924    0.8234 N   0  0  0  0  0  0
   -2.0439    0.8568    1.1548 C   0  0  0  0  0  0
   -2.7857   -0.2957    0.8184 C   0  0  0  0  0  0
   -4.1885   -0.3998    1.1974 C   0  0  0  0  0  0
   -5.3026   -0.4827    1.4982 N   0  0  0  0  0  0
   -1.7206   -3.7666   -3.2799 H   0  0  0  0  0  0
   -3.2540   -2.9683   -2.9413 H   0  0  0  0  0  0
   -1.7440   -2.0726   -2.8021 H   0  0  0  0  0  0
   -2.5889   -4.4283   -1.0228 H   0  0  0  0  0  0
   -1.0557   -3.6112   -0.8844 H   0  0  0  0  0  0
   -3.7152   -2.6219   -0.0542 H   0  0  0  0  0  0
    1.5805    0.9180    0.3203 H   0  0  0  0  0  0
    3.3616   -0.7458    0.9736 H   0  0  0  0  0  0
    5.1684   -1.8692   -5.3410 H   0  0  0  0  0  0
    4.9768   -1.0473   -3.8147 H   0  0  0  0  0  0
    7.0927   -0.3466   -4.8895 H   0  0  0  0  0  0
    7.4191   -1.1498   -3.3656 H   0  0  0  0  0  0
    8.4627   -4.2109   -5.0403 H   0  0  0  0  0  0
    8.2385   -3.4936   -3.4545 H   0  0  0  0  0  0
    6.3570   -5.0747   -4.0204 H   0  0  0  0  0  0
    5.9996   -4.1603   -5.4591 H   0  0  0  0  0  0
    2.7274   -2.4711   -3.6400 H   0  0  0  0  0  0
   -0.2633   -0.6669   -4.5503 H   0  0  0  0  0  0
    1.4810   -0.8003   -4.7417 H   0  0  0  0  0  0
    0.5181   -2.2119   -4.2409 H   0  0  0  0  0  0
   -2.4928    1.6778    1.6950 H   0  0  0  0  0  0
  1  2  1  0  0  0
  1 30  1  0  0  0
  1 31  1  0  0  0
  1 32  1  0  0  0
  2  3  1  0  0  0
  2 33  1  0  0  0
  2 34  1  0  0  0
  3  4  1  0  0  0
  3 35  1  0  0  0
  4 27  1  0  0  0
  4  5  2  0  0  0
  5  6  1  0  0  0
  6  7  1  0  0  0
  6 25  2  0  0  0
  7  8  1  0  0  0
  7 36  1  0  0  0
  8 22  1  0  0  0
  8  9  2  0  0  0
  9 10  1  0  0  0
  9 37  1  0  0  0
 10 11  1  0  0  0
 10 12  2  0  0  0
 12 13  1  0  0  0
 12 21  1  0  0  0
 13 14  2  0  0  0
 13 15  1  0  0  0
 15 20  1  0  0  0
 15 16  1  0  0  0
 16 17  1  0  0  0
 16 38  1  0  0  0
 16 39  1  0  0  0
 17 18  1  0  0  0
 17 40  1  0  0  0
 17 41  1  0  0  0
 18 19  1  0  0  0
 19 20  1  0  0  0
 19 42  1  0  0  0
 19 43  1  0  0  0
 20 44  1  0  0  0
 20 45  1  0  0  0
 21 22  2  0  0  0
 21 46  1  0  0  0
 22 23  1  0  0  0
 23 24  1  0  0  0
 24 47  1  0  0  0
 24 48  1  0  0  0
 24 49  1  0  0  0
 25 26  1  0  0  0
 26 27  2  0  0  0
 26 50  1  0  0  0
 27 28  1  0  0  0
 28 29  3  0  0  0
M  END
$$$$
59
                    3D
 Schrodinger Suite 2021-2.
 50 53  0  0  1  0            999 V2000
   -2.6929    7.6506    0.7685 C   0  0  0  0  0  0
   -2.2173    6.2530    1.1894 C   0  0  2  0  0  0
   -0.7846    5.9727    0.6950 C   0  0  0  0  0  0
   -0.3043    4.5739    1.1200 C   0  0  0  0  0  0
   -1.2714    3.4676    0.6416 C   0  0  1  0  0  0
   -2.7118    3.7541    1.1212 C   0  0  0  0  0  0
   -3.1844    5.1569    0.6997 C   0  0  0  0  0  0
   -1.2116    3.2951   -0.7993 N   0  0  0  0  0  0
   -0.7821    2.0797   -1.1604 C   0  0  0  0  0  0
   -0.6306    1.6970   -2.3196 O   0  0  0  0  0  0
   -0.5468    1.3656   -0.0447 N   0  0  0  0  0  0
   -0.0265   -0.0078   -0.0354 C   0  0  0  0  0  0
    1.5068   -0.0799    0.0117 C   0  0  0  0  0  0
    2.1897    0.9415    0.1063 O   0  0  0  0  0  0
    2.0348   -1.3113   -0.0502 N   0  0  0  0  0  0
    3.4594   -1.6155    0.0088 C   0  0  0  0  0  0
    3.9671   -1.7298    1.4347 C   0  0  0  0  0  0
    4.5305   -0.5982    2.0807 C   0  0  0  0  0  0
    4.9969   -0.6837    3.4120 C   0  0  0  0  0  0
    4.8839   -1.9208    4.0668 C   0  0  0  0  0  0
    4.3347   -3.0223    3.4432 C   0  0  0  0  0  0
    3.8615   -2.9629    2.1221 C   0  0  0  0  0  0
    4.3455   -4.0788    4.2953 O   0  0  0  0  0  0
    4.9248   -3.6072    5.4846 C   0  0  0  0  0  0
    5.2560   -2.2514    5.3295 O   0  0  0  0  0  0
   -0.7972    2.0839    1.0588 C   0  0  0  0  0  0
   -0.6679    1.7206    2.2282 O   0  0  0  0  0  0
   -2.7347    7.7455   -0.3170 H   0  0  0  0  0  0
   -3.6886    7.8609    1.1597 H   0  0  0  0  0  0
   -2.0218    8.4232    1.1445 H   0  0  0  0  0  0
   -2.2055    6.2263    2.2801 H   0  0  0  0  0  0
   -0.7437    6.0612   -0.3914 H   0  0  0  0  0  0
   -0.1009    6.7253    1.0890 H   0  0  0  0  0  0
    0.7016    4.3974    0.7353 H   0  0  0  0  0  0
   -0.2217    4.5453    2.2078 H   0  0  0  0  0  0
   -3.4017    3.0022    0.7346 H   0  0  0  0  0  0
   -2.7589    3.6781    2.2087 H   0  0  0  0  0  0
   -4.1833    5.3372    1.0983 H   0  0  0  0  0  0
   -3.2757    5.2023   -0.3863 H   0  0  0  0  0  0
   -1.4571    4.0283   -1.4484 H   0  0  0  0  0  0
   -0.4281   -0.5510    0.8218 H   0  0  0  0  0  0
   -0.3776   -0.5456   -0.9179 H   0  0  0  0  0  0
    1.4039   -2.0957   -0.1291 H   0  0  0  0  0  0
    3.6287   -2.5611   -0.5072 H   0  0  0  0  0  0
    4.0373   -0.8660   -0.5349 H   0  0  0  0  0  0
    4.6022    0.3421    1.5536 H   0  0  0  0  0  0
    5.4249    0.1737    3.9100 H   0  0  0  0  0  0
    3.4312   -3.8334    1.6493 H   0  0  0  0  0  0
    4.2167   -3.7189    6.3062 H   0  0  0  0  0  0
    5.8264   -4.1800    5.7038 H   0  0  0  0  0  0
  1  2  1  0  0  0
  1 28  1  0  0  0
  1 29  1  0  0  0
  1 30  1  0  0  0
  2  7  1  0  0  0
  2  3  1  0  0  0
  2 31  1  0  0  0
  3  4  1  0  0  0
  3 32  1  0  0  0
  3 33  1  0  0  0
  4  5  1  0  0  0
  4 34  1  0  0  0
  4 35  1  0  0  0
  5 26  1  0  0  0
  5  6  1  0  0  0
  5  8  1  0  0  0
  6  7  1  0  0  0
  6 36  1  0  0  0
  6 37  1  0  0  0
  7 38  1  0  0  0
  7 39  1  0  0  0
  8  9  1  0  0  0
  8 40  1  0  0  0
  9 10  2  0  0  0
  9 11  1  0  0  0
 11 12  1  0  0  0
 11 26  1  0  0  0
 12 13  1  0  0  0
 12 41  1  0  0  0
 12 42  1  0  0  0
 13 14  2  0  0  0
 13 15  1  0  0  0
 15 16  1  0  0  0
 15 43  1  0  0  0
 16 17  1  0  0  0
 16 44  1  0  0  0
 16 45  1  0  0  0
 17 22  1  0  0  0
 17 18  2  0  0  0
 18 19  1  0  0  0
 18 46  1  0  0  0
 19 20  2  0  0  0
 19 47  1  0  0  0
 20 25  1  0  0  0
 20 21  1  0  0  0
 21 22  2  0  0  0
 21 23  1  0  0  0
 22 48  1  0  0  0
 23 24  1  0  0  0
 24 25  1  0  0  0
 24 49  1  0  0  0
 24 50  1  0  0  0
 26 27  2  0  0  0
M  END
$$$$
60
                    3D
 Schrodinger Suite 2021-2.
 40 42  0  0  1  0            999 V2000
   -4.1468   -2.5121   -0.0646 N   0  0  0  0  0  0
   -2.8091   -2.5704   -0.0759 C   0  0  0  0  0  0
   -2.2658   -3.6736   -0.1274 O   0  0  0  0  0  0
   -2.1422   -1.2492   -0.0233 C   0  0  0  0  0  0
   -2.8280   -0.0893    0.0912 C   0  0  0  0  0  0
   -2.1376    1.1694    0.1424 C   0  0  0  0  0  0
   -0.7934    1.2077    0.0937 C   0  0  0  0  0  0
   -0.0473    2.5499    0.1221 C   0  0  0  0  0  0
   -0.8947    3.5742    0.0145 F   0  0  0  0  0  0
    0.6014    2.7050    1.2765 F   0  0  0  0  0  0
    0.8168    2.6667   -0.8858 F   0  0  0  0  0  0
   -0.0510   -0.0100   -0.0236 N   0  0  0  0  0  0
    1.4348    0.0234   -0.0349 C   0  0  0  0  0  0
    2.0333   -0.0386   -1.4578 C   0  0  0  0  0  0
    1.2844   -0.0628   -2.4366 O   0  0  0  0  0  0
    3.5210   -0.0524   -1.5837 C   0  0  0  0  0  0
    4.1046   -0.1111   -2.8706 C   0  0  0  0  0  0
    5.5037   -0.1246   -3.0258 C   0  0  0  0  0  0
    6.3436   -0.0824   -1.8978 C   0  0  0  0  0  0
    5.7722    0.0001   -0.6033 C   0  0  0  0  0  0
    4.3717    0.0004   -0.4532 C   0  0  0  0  0  0
    6.5613    0.0764    0.5214 O   0  0  0  0  0  0
    7.9185    0.4203    0.2707 C   0  0  0  0  0  0
    8.4517   -0.4154   -0.9018 C   0  0  0  0  0  0
    7.7075   -0.1165   -2.0766 O   0  0  0  0  0  0
   -0.6582   -1.2448   -0.0938 C   0  0  0  0  0  0
    0.0274   -2.2652   -0.2107 O   0  0  0  0  0  0
   -4.6834   -3.3667   -0.0977 H   0  0  0  0  0  0
   -4.6145   -1.6185   -0.0252 H   0  0  0  0  0  0
   -3.9058   -0.0622    0.1509 H   0  0  0  0  0  0
   -2.7182    2.0764    0.2204 H   0  0  0  0  0  0
    1.8304    0.8961    0.4753 H   0  0  0  0  0  0
    1.8346   -0.8089    0.5471 H   0  0  0  0  0  0
    3.4854   -0.1503   -3.7552 H   0  0  0  0  0  0
    5.9336   -0.1779   -4.0151 H   0  0  0  0  0  0
    3.9741    0.0546    0.5486 H   0  0  0  0  0  0
    7.9950    1.4869    0.0551 H   0  0  0  0  0  0
    8.5028    0.2297    1.1710 H   0  0  0  0  0  0
    9.5026   -0.1897   -1.0836 H   0  0  0  0  0  0
    8.3834   -1.4819   -0.6824 H   0  0  0  0  0  0
  1  2  1  0  0  0
  1 28  1  0  0  0
  1 29  1  0  0  0
  2  3  2  0  0  0
  2  4  1  0  0  0
  4 26  1  0  0  0
  4  5  2  0  0  0
  5  6  1  0  0  0
  5 30  1  0  0  0
  6  7  2  0  0  0
  6 31  1  0  0  0
  7  8  1  0  0  0
  7 12  1  0  0  0
  8  9  1  0  0  0
  8 10  1  0  0  0
  8 11  1  0  0  0
 12 13  1  0  0  0
 12 26  1  0  0  0
 13 14  1  0  0  0
 13 32  1  0  0  0
 13 33  1  0  0  0
 14 15  2  0  0  0
 14 16  1  0  0  0
 16 21  1  0  0  0
 16 17  2  0  0  0
 17 18  1  0  0  0
 17 34  1  0  0  0
 18 19  2  0  0  0
 18 35  1  0  0  0
 19 25  1  0  0  0
 19 20  1  0  0  0
 20 21  2  0  0  0
 20 22  1  0  0  0
 21 36  1  0  0  0
 22 23  1  0  0  0
 23 24  1  0  0  0
 23 37  1  0  0  0
 23 38  1  0  0  0
 24 25  1  0  0  0
 24 39  1  0  0  0
 24 40  1  0  0  0
 26 27  2  0  0  0
M  END
$$$$
61
                    3D
 Schrodinger Suite 2021-2.
 46 49  0  0  1  0            999 V2000
   -7.7748    4.0944    0.2605 C   0  0  0  0  0  0
   -6.7110    4.1075   -0.6802 O   0  0  0  0  0  0
   -5.6023    3.3279   -0.4235 C   0  0  0  0  0  0
   -5.4522    2.5270    0.7368 C   0  0  0  0  0  0
   -4.2903    1.7549    0.9280 C   0  0  0  0  0  0
   -3.2625    1.7592   -0.0363 C   0  0  0  0  0  0
   -2.0459    0.9712    0.1558 C   0  0  0  0  0  0
   -0.7384    1.3824    0.1005 C   0  0  0  0  0  0
    0.1169    0.3208    0.3602 N   0  0  0  0  0  0
    1.6106    0.4117    0.3889 C   0  0  2  0  0  0
    2.1190   -0.5731   -0.4563 O   0  0  0  0  0  0
    3.3238   -1.0750    0.1048 C   0  0  2  0  0  0
    3.6514   -2.4564   -0.4798 C   0  0  0  0  0  0
    4.3389   -2.3144   -1.7044 O   0  0  0  0  0  0
    2.9947   -1.1112    1.5966 C   0  0  0  0  0  0
    2.1626    0.1457    1.8004 C   0  0  1  0  0  0
    2.9870    1.2035    2.2459 O   0  0  0  0  0  0
   -0.6437   -0.8170    0.5593 C   0  0  0  0  0  0
   -0.1834   -2.0758    0.8285 N   0  0  0  0  0  0
   -1.1743   -2.9604    0.9522 C   0  0  0  0  0  0
   -2.4887   -2.7589    0.8396 N   0  0  0  0  0  0
   -2.9429   -1.5145    0.5716 C   0  0  0  0  0  0
   -4.3216   -1.3674    0.4369 N   0  0  0  0  0  0
   -2.0148   -0.4462    0.4255 C   0  0  0  0  0  0
   -3.4010    2.5642   -1.1839 C   0  0  0  0  0  0
   -4.5610    3.3389   -1.3781 C   0  0  0  0  0  0
   -4.6964    4.3061   -2.8027 Cl  0  0  0  0  0  0
    1.8465    1.4062    0.0065 H   0  0  0  0  0  0
    4.1366   -0.3671   -0.0696 H   0  0  0  0  0  0
    1.3599   -0.0131    2.5219 H   0  0  0  0  0  0
   -8.5728    4.7480   -0.0915 H   0  0  0  0  0  0
   -8.1947    3.0940    0.3745 H   0  0  0  0  0  0
   -7.4510    4.4645    1.2341 H   0  0  0  0  0  0
   -6.2149    2.4886    1.4995 H   0  0  0  0  0  0
   -4.1913    1.1576    1.8227 H   0  0  0  0  0  0
   -0.3440    2.3695   -0.0916 H   0  0  0  0  0  0
    4.3045   -3.0052    0.1993 H   0  0  0  0  0  0
    2.7489   -3.0534   -0.6155 H   0  0  0  0  0  0
    4.5328   -3.1758   -2.0413 H   0  0  0  0  0  0
    2.3896   -1.9900    1.8219 H   0  0  0  0  0  0
    3.8829   -1.1567    2.2282 H   0  0  0  0  0  0
    3.6857    1.3230    1.6209 H   0  0  0  0  0  0
   -0.8720   -3.9747    1.1667 H   0  0  0  0  0  0
   -4.7363   -0.4758    0.2067 H   0  0  0  0  0  0
   -4.9451   -2.1571    0.5216 H   0  0  0  0  0  0
   -2.6150    2.5858   -1.9250 H   0  0  0  0  0  0
  1  2  1  0  0  0
  1 31  1  0  0  0
  1 32  1  0  0  0
  1 33  1  0  0  0
  2  3  1  0  0  0
  3 26  1  0  0  0
  3  4  2  0  0  0
  4  5  1  0  0  0
  4 34  1  0  0  0
  5  6  2  0  0  0
  5 35  1  0  0  0
  6  7  1  0  0  0
  6 25  1  0  0  0
  7 24  1  0  0  0
  7  8  2  0  0  0
  8  9  1  0  0  0
  8 36  1  0  0  0
  9 10  1  0  0  0
  9 18  1  0  0  0
 10 28  1  0  0  0
 10 16  1  0  0  0
 10 11  1  0  0  0
 11 12  1  0  0  0
 12 29  1  0  0  0
 12 13  1  0  0  0
 12 15  1  0  0  0
 13 14  1  0  0  0
 13 37  1  0  0  0
 13 38  1  0  0  0
 14 39  1  0  0  0
 15 16  1  0  0  0
 15 40  1  0  0  0
 15 41  1  0  0  0
 16 30  1  0  0  0
 16 17  1  0  0  0
 17 42  1  0  0  0
 18 24  1  0  0  0
 18 19  2  0  0  0
 19 20  1  0  0  0
 20 21  2  0  0  0
 20 43  1  0  0  0
 21 22  1  0  0  0
 22 23  1  0  0  0
 22 24  2  0  0  0
 23 44  1  0  0  0
 23 45  1  0  0  0
 25 26  2  0  0  0
 25 46  1  0  0  0
 26 27  1  0  0  0
M  END
$$$$
62
                    3D
 Schrodinger Suite 2021-2.
 47 50  0  0  1  0            999 V2000
   -0.6806    1.1243   -0.1571 C   0  0  0  0  0  0
    0.0775   -0.0761   -0.1254 O   0  0  0  0  0  0
    1.4537    0.0170   -0.0839 C   0  0  0  0  0  0
    2.1564    1.2477   -0.0755 C   0  0  0  0  0  0
    3.5634    1.2892   -0.0333 C   0  0  0  0  0  0
    4.2216    2.4703   -0.0271 N   0  0  0  0  0  0
    5.5595    2.4646    0.0127 C   0  0  0  0  0  0
    6.2555    3.7692    0.0121 C   0  0  0  0  0  0
    7.6689    3.8760    0.0106 C   0  0  0  0  0  0
    8.3020    5.0700    0.0090 N   0  0  0  0  0  0
    7.5317    6.1581    0.0096 C   0  0  0  0  0  0
    8.1781    7.3696    0.0085 N   0  0  0  0  0  0
    6.1989    6.1930    0.0114 N   0  0  0  0  0  0
    5.5583    5.0030    0.0122 C   0  0  0  0  0  0
    6.3132    1.3605    0.0507 N   0  0  0  0  0  0
    5.6936    0.1573    0.0480 C   0  0  0  0  0  0
    6.4982   -0.9934    0.0832 N   0  0  0  0  0  0
    7.2101   -1.2367   -1.1648 C   0  0  0  0  0  0
    7.9462   -2.5856   -1.0945 C   0  0  0  0  0  0
    8.8081   -2.6022    0.0403 O   0  0  0  0  0  0
    8.0905   -2.4393    1.2606 C   0  0  0  0  0  0
    7.3651   -1.0834    1.2517 C   0  0  0  0  0  0
    4.2801    0.0669    0.0022 C   0  0  0  0  0  0
    3.5902   -1.1648   -0.0063 C   0  0  0  0  0  0
    2.1751   -1.1968   -0.0495 C   0  0  0  0  0  0
    1.4382   -2.3631   -0.0608 O   0  0  0  0  0  0
    2.1321   -3.6020   -0.0303 C   0  0  0  0  0  0
   -1.7418    0.8778   -0.1854 H   0  0  0  0  0  0
   -0.5068    1.7293    0.7337 H   0  0  0  0  0  0
   -0.4561    1.7148   -1.0463 H   0  0  0  0  0  0
    1.6299    2.1895   -0.1019 H   0  0  0  0  0  0
    8.3097    3.0066    0.0089 H   0  0  0  0  0  0
    7.6502    8.2302    0.0201 H   0  0  0  0  0  0
    9.1869    7.4107    0.0187 H   0  0  0  0  0  0
    4.4795    5.0522    0.0146 H   0  0  0  0  0  0
    6.5076   -1.2360   -1.9993 H   0  0  0  0  0  0
    7.9258   -0.4326   -1.3429 H   0  0  0  0  0  0
    7.2370   -3.4129   -1.0375 H   0  0  0  0  0  0
    8.5412   -2.7363   -1.9952 H   0  0  0  0  0  0
    7.3820   -3.2591    1.3910 H   0  0  0  0  0  0
    8.7906   -2.4863    2.0949 H   0  0  0  0  0  0
    8.0968   -0.2743    1.2357 H   0  0  0  0  0  0
    6.7728   -0.9679    2.1603 H   0  0  0  0  0  0
    4.1589   -2.0812    0.0205 H   0  0  0  0  0  0
    1.4103   -4.4185   -0.0495 H   0  0  0  0  0  0
    2.7821   -3.7177   -0.8987 H   0  0  0  0  0  0
    2.7228   -3.7066    0.8809 H   0  0  0  0  0  0
  1  2  1  0  0  0
  1 28  1  0  0  0
  1 29  1  0  0  0
  1 30  1  0  0  0
  2  3  1  0  0  0
  3 25  1  0  0  0
  3  4  2  0  0  0
  4  5  1  0  0  0
  4 31  1  0  0  0
  5 23  2  0  0  0
  5  6  1  0  0  0
  6  7  2  0  0  0
  7  8  1  0  0  0
  7 15  1  0  0  0
  8 14  1  0  0  0
  8  9  2  0  0  0
  9 10  1  0  0  0
  9 32  1  0  0  0
 10 11  2  0  0  0
 11 12  1  0  0  0
 11 13  1  0  0  0
 12 33  1  0  0  0
 12 34  1  0  0  0
 13 14  2  0  0  0
 14 35  1  0  0  0
 15 16  2  0  0  0
 16 17  1  0  0  0
 16 23  1  0  0  0
 17 22  1  0  0  0
 17 18  1  0  0  0
 18 19  1  0  0  0
 18 36  1  0  0  0
 18 37  1  0  0  0
 19 20  1  0  0  0
 19 38  1  0  0  0
 19 39  1  0  0  0
 20 21  1  0  0  0
 21 22  1  0  0  0
 21 40  1  0  0  0
 21 41  1  0  0  0
 22 42  1  0  0  0
 22 43  1  0  0  0
 23 24  1  0  0  0
 24 25  2  0  0  0
 24 44  1  0  0  0
 25 26  1  0  0  0
 26 27  1  0  0  0
 27 45  1  0  0  0
 27 46  1  0  0  0
 27 47  1  0  0  0
M  END
$$$$
63
                    3D
 Schrodinger Suite 2021-2.
 37 39  0  0  1  0            999 V2000
   -0.5155    2.3254    0.0317 O   0  0  0  0  0  0
   -0.8508    1.1413   -0.0189 C   0  0  0  0  0  0
   -2.3324    0.7483   -0.0332 C   0  0  0  0  0  0
   -3.1656    1.8768   -0.2125 O   0  0  0  0  0  0
    0.0110    0.1080   -0.0355 N   0  0  0  0  0  0
    1.4316    0.1407   -0.0458 C   0  0  0  0  0  0
    2.1984    1.2279   -0.5317 C   0  0  0  0  0  0
    3.5487    1.2319   -0.5589 N   0  0  0  0  0  0
    4.2097    0.1439   -0.1080 C   0  0  0  0  0  0
    5.6112    0.1910   -0.1581 N   0  0  0  0  0  0
    6.2808   -0.8435    0.2533 C   0  0  0  0  0  0
    5.6912   -2.0246    0.7523 N   0  0  0  0  0  0
    6.6085   -3.0960    1.1708 C   0  0  0  0  0  0
    6.9602   -3.0291    2.6484 C   0  0  0  0  0  0
    8.0340   -2.2261    3.0854 C   0  0  0  0  0  0
    8.3532   -2.1558    4.4549 C   0  0  0  0  0  0
    7.6006   -2.8846    5.3969 C   0  0  0  0  0  0
    8.0116   -2.7776    7.0717 Cl  0  0  0  0  0  0
    6.5239   -3.6894    4.9637 C   0  0  0  0  0  0
    5.5803   -4.5934    6.0939 Cl  0  0  0  0  0  0
    6.2083   -3.7595    3.5924 C   0  0  0  0  0  0
    4.3445   -2.1687    0.8585 C   0  0  0  0  0  0
    3.7918   -3.1765    1.3024 O   0  0  0  0  0  0
    3.5336   -0.9973    0.3857 C   0  0  0  0  0  0
    2.1233   -0.9981    0.4128 C   0  0  0  0  0  0
   -2.5181    0.0391   -0.8405 H   0  0  0  0  0  0
   -2.5896    0.2574    0.9059 H   0  0  0  0  0  0
   -4.0658    1.5900   -0.2129 H   0  0  0  0  0  0
   -0.4012   -0.8119    0.0215 H   0  0  0  0  0  0
    1.7372    2.1160   -0.9350 H   0  0  0  0  0  0
    7.3720   -0.8575    0.2397 H   0  0  0  0  0  0
    6.1769   -4.0744    0.9514 H   0  0  0  0  0  0
    7.5315   -3.0722    0.5881 H   0  0  0  0  0  0
    8.6155   -1.6607    2.3721 H   0  0  0  0  0  0
    9.1776   -1.5393    4.7821 H   0  0  0  0  0  0
    5.3826   -4.3748    3.2657 H   0  0  0  0  0  0
    1.5763   -1.8546    0.7803 H   0  0  0  0  0  0
  1  2  2  0  0  0
  2  3  1  0  0  0
  2  5  1  0  0  0
  3  4  1  0  0  0
  3 26  1  0  0  0
  3 27  1  0  0  0
  4 28  1  0  0  0
  5  6  1  0  0  0
  5 29  1  0  0  0
  6 25  1  0  0  0
  6  7  2  0  0  0
  7  8  1  0  0  0
  7 30  1  0  0  0
  8  9  2  0  0  0
  9 24  1  0  0  0
  9 10  1  0  0  0
 10 11  2  0  0  0
 11 12  1  0  0  0
 11 31  1  0  0  0
 12 13  1  0  0  0
 12 22  1  0  0  0
 13 14  1  0  0  0
 13 32  1  0  0  0
 13 33  1  0  0  0
 14 21  1  0  0  0
 14 15  2  0  0  0
 15 16  1  0  0  0
 15 34  1  0  0  0
 16 17  2  0  0  0
 16 35  1  0  0  0
 17 18  1  0  0  0
 17 19  1  0  0  0
 19 20  1  0  0  0
 19 21  2  0  0  0
 21 36  1  0  0  0
 22 23  2  0  0  0
 22 24  1  0  0  0
 24 25  2  0  0  0
 25 37  1  0  0  0
M  END
$$$$
64
                    3D
 Schrodinger Suite 2021-2.
 51 53  0  0  1  0            999 V2000
   -2.3575   -4.6263    1.2594 C   0  0  0  0  0  0
   -2.1159   -3.2415    1.0856 O   0  0  0  0  0  0
   -2.2230   -2.8367   -0.2687 C   0  0  0  0  0  0
   -1.9406   -1.3347   -0.3611 C   0  0  0  0  0  0
   -0.5441   -1.1140   -0.2387 O   0  0  0  0  0  0
   -0.0656    0.1249   -0.0056 C   0  0  0  0  0  0
   -0.7967    1.1130    0.0937 O   0  0  0  0  0  0
    1.4293    0.1528    0.1251 C   0  0  0  0  0  0
    2.1188    1.3252    0.1828 C   0  0  0  0  0  0
    1.5837    2.6000    0.1624 N   0  0  0  0  0  0
    3.4910    1.3675    0.2573 O   0  0  0  0  0  0
    4.2291    0.2226    0.1003 C   0  0  0  0  0  0
    3.6611   -0.9990    0.0456 C   0  0  0  0  0  0
    4.5203   -2.1909   -0.1713 C   0  0  0  0  0  0
    4.0822   -3.3381   -0.2456 O   0  0  0  0  0  0
    6.0290   -1.9742   -0.3507 C   0  0  0  0  0  0
    6.5677   -0.7411    0.4130 C   0  0  0  0  0  0
    6.5173   -0.9719    1.9411 C   0  0  0  0  0  0
    8.0334   -0.5033    0.0070 C   0  0  0  0  0  0
    5.7229    0.4953    0.0280 C   0  0  0  0  0  0
    2.1560   -1.2015    0.1784 C   0  0  1  0  0  0
    1.8107   -1.9965    1.4370 C   0  0  0  0  0  0
    1.2399   -3.2840    1.3498 C   0  0  0  0  0  0
    0.9461   -3.9800    2.5377 C   0  0  0  0  0  0
    1.2354   -3.3580    3.7679 C   0  0  0  0  0  0
    1.7823   -2.1276    3.8666 N   0  0  0  0  0  0
    2.0617   -1.4675    2.7226 C   0  0  0  0  0  0
   -2.2590   -4.8840    2.3137 H   0  0  0  0  0  0
   -3.3646   -4.8957    0.9388 H   0  0  0  0  0  0
   -1.6382   -5.2243    0.6986 H   0  0  0  0  0  0
   -1.5352   -3.3981   -0.9034 H   0  0  0  0  0  0
   -3.2352   -3.0374   -0.6227 H   0  0  0  0  0  0
   -2.2690   -0.9528   -1.3282 H   0  0  0  0  0  0
   -2.4976   -0.8006    0.4104 H   0  0  0  0  0  0
    0.5854    2.7550    0.1371 H   0  0  0  0  0  0
    2.1639    3.4232    0.2367 H   0  0  0  0  0  0
    6.5591   -2.8731   -0.0340 H   0  0  0  0  0  0
    6.2199   -1.8599   -1.4182 H   0  0  0  0  0  0
    6.9319   -0.1205    2.4820 H   0  0  0  0  0  0
    5.5012   -1.1203    2.3077 H   0  0  0  0  0  0
    7.0963   -1.8511    2.2257 H   0  0  0  0  0  0
    8.4470    0.3731    0.5073 H   0  0  0  0  0  0
    8.6597   -1.3574    0.2667 H   0  0  0  0  0  0
    8.1286   -0.3427   -1.0675 H   0  0  0  0  0  0
    5.9444    0.7980   -0.9963 H   0  0  0  0  0  0
    5.9708    1.3462    0.6640 H   0  0  0  0  0  0
    1.8511   -1.7740   -0.6998 H   0  0  0  0  0  0
    1.0296   -3.7322    0.3899 H   0  0  0  0  0  0
    0.5075   -4.9663    2.5062 H   0  0  0  0  0  0
    1.0225   -3.8633    4.6984 H   0  0  0  0  0  0
    2.5015   -0.4875    2.8363 H   0  0  0  0  0  0
  1  2  1  0  0  0
  1 28  1  0  0  0
  1 29  1  0  0  0
  1 30  1  0  0  0
  2  3  1  0  0  0
  3  4  1  0  0  0
  3 31  1  0  0  0
  3 32  1  0  0  0
  4  5  1  0  0  0
  4 33  1  0  0  0
  4 34  1  0  0  0
  5  6  1  0  0  0
  6  7  2  0  0  0
  6  8  1  0  0  0
  8 21  1  0  0  0
  8  9  2  0  0  0
  9 10  1  0  0  0
  9 11  1  0  0  0
 10 35  1  0  0  0
 10 36  1  0  0  0
 11 12  1  0  0  0
 12 20  1  0  0  0
 12 13  2  0  0  0
 13 14  1  0  0  0
 13 21  1  0  0  0
 14 15  2  0  0  0
 14 16  1  0  0  0
 16 17  1  0  0  0
 16 37  1  0  0  0
 16 38  1  0  0  0
 17 18  1  0  0  0
 17 19  1  0  0  0
 17 20  1  0  0  0
 18 39  1  0  0  0
 18 40  1  0  0  0
 18 41  1  0  0  0
 19 42  1  0  0  0
 19 43  1  0  0  0
 19 44  1  0  0  0
 20 45  1  0  0  0
 20 46  1  0  0  0
 21 22  1  0  0  0
 21 47  1  0  0  0
 22 27  1  0  0  0
 22 23  2  0  0  0
 23 24  1  0  0  0
 23 48  1  0  0  0
 24 25  2  0  0  0
 24 49  1  0  0  0
 25 26  1  0  0  0
 25 50  1  0  0  0
 26 27  2  0  0  0
 27 51  1  0  0  0
M  END
$$$$
65
                    3D
 Schrodinger Suite 2021-2.
 41 43  0  0  1  0            999 V2000
   -4.0380   -0.1191   -1.1802 C   0  0  0  0  0  0
   -2.6745    0.2471   -1.0612 O   0  0  0  0  0  0
   -2.2840    1.0184   -0.0336 C   0  0  0  0  0  0
   -3.0150    1.4762    0.8454 O   0  0  0  0  0  0
   -0.7872    1.3076   -0.0512 C   0  0  0  0  0  0
   -0.0803    0.0770   -0.0070 O   0  0  0  0  0  0
    1.2976    0.1253    0.0066 C   0  0  0  0  0  0
    2.0423    1.3318   -0.0186 C   0  0  0  0  0  0
    3.4545    1.3068    0.0006 C   0  0  0  0  0  0
    4.2471    2.5513   -0.0197 C   0  0  0  0  0  0
    5.2303    2.6041    0.9397 O   0  0  0  0  0  0
    6.0432    3.7067    1.0582 C   0  0  0  0  0  0
    7.0589    3.6610    2.0331 C   0  0  0  0  0  0
    7.9247    4.7538    2.2118 C   0  0  0  0  0  0
    8.9057    4.7042    3.1589 O   0  0  0  0  0  0
    7.7762    5.8995    1.4109 C   0  0  0  0  0  0
    6.7646    5.9611    0.4315 C   0  0  0  0  0  0
    6.6772    7.1043   -0.3135 O   0  0  0  0  0  0
    5.8835    4.8581    0.2482 C   0  0  0  0  0  0
    4.7876    4.8432   -0.7630 C   0  0  0  0  0  0
    4.5421    5.7953   -1.5054 O   0  0  0  0  0  0
    3.9900    3.6041   -0.8329 C   0  0  0  0  0  0
    3.0286    3.5780   -1.7690 O   0  0  0  0  0  0
    4.1308    0.0719    0.0558 C   0  0  0  0  0  0
    3.4009   -1.1302    0.0781 C   0  0  0  0  0  0
    1.9929   -1.1038    0.0520 C   0  0  0  0  0  0
    1.3019   -2.2815    0.0743 O   0  0  0  0  0  0
   -4.1766   -0.7504   -2.0578 H   0  0  0  0  0  0
   -4.3687   -0.6776   -0.3035 H   0  0  0  0  0  0
   -4.6696    0.7632   -1.2919 H   0  0  0  0  0  0
   -0.5378    1.8589   -0.9586 H   0  0  0  0  0  0
   -0.5293    1.9252    0.8101 H   0  0  0  0  0  0
    1.5444    2.2890   -0.0410 H   0  0  0  0  0  0
    7.1702    2.7791    2.6471 H   0  0  0  0  0  0
    8.9133    3.8928    3.6433 H   0  0  0  0  0  0
    8.4435    6.7379    1.5495 H   0  0  0  0  0  0
    7.3298    7.7484   -0.0848 H   0  0  0  0  0  0
    3.0571    4.4074   -2.2224 H   0  0  0  0  0  0
    5.2106    0.0411    0.0757 H   0  0  0  0  0  0
    3.9259   -2.0734    0.1163 H   0  0  0  0  0  0
    1.8630   -3.0412    0.1030 H   0  0  0  0  0  0
  1  2  1  0  0  0
  1 28  1  0  0  0
  1 29  1  0  0  0
  1 30  1  0  0  0
  2  3  1  0  0  0
  3  4  2  0  0  0
  3  5  1  0  0  0
  5  6  1  0  0  0
  5 31  1  0  0  0
  5 32  1  0  0  0
  6  7  1  0  0  0
  7 26  1  0  0  0
  7  8  2  0  0  0
  8  9  1  0  0  0
  8 33  1  0  0  0
  9 10  1  0  0  0
  9 24  2  0  0  0
 10 22  2  0  0  0
 10 11  1  0  0  0
 11 12  1  0  0  0
 12 19  2  0  0  0
 12 13  1  0  0  0
 13 14  2  0  0  0
 13 34  1  0  0  0
 14 15  1  0  0  0
 14 16  1  0  0  0
 15 35  1  0  0  0
 16 17  2  0  0  0
 16 36  1  0  0  0
 17 18  1  0  0  0
 17 19  1  0  0  0
 18 37  1  0  0  0
 19 20  1  0  0  0
 20 21  2  0  0  0
 20 22  1  0  0  0
 22 23  1  0  0  0
 23 38  1  0  0  0
 24 25  1  0  0  0
 24 39  1  0  0  0
 25 26  2  0  0  0
 25 40  1  0  0  0
 26 27  1  0  0  0
 27 41  1  0  0  0
M  END
$$$$
66
                    3D
 Schrodinger Suite 2021-2.
 53 55  0  0  1  0            999 V2000
   -3.0120   -1.9100   -2.2236 N   0  0  0  0  0  0
   -2.6863   -1.5197   -1.1843 C   0  0  0  0  0  0
   -2.2706   -1.0240    0.1376 C   0  0  0  0  0  0
   -0.8250   -0.9055    0.2573 N   0  0  0  0  0  0
   -0.0861    0.0436   -0.3408 C   0  0  0  0  0  0
   -0.5984    0.9083   -1.0522 O   0  0  0  0  0  0
    1.4537    0.0142   -0.1376 C   0  0  0  0  0  0
    1.8436   -0.7579    1.0584 N   0  0  0  0  0  0
    1.6231   -0.4756    2.3572 C   0  0  0  0  0  0
    0.9611    0.4847    2.7502 O   0  0  0  0  0  0
    2.1840   -1.4723    3.3307 C   0  0  0  0  0  0
    1.5320   -1.7036    4.5601 C   0  0  0  0  0  0
    2.0599   -2.6215    5.4878 C   0  0  0  0  0  0
    3.2545   -3.3282    5.2155 C   0  0  0  0  0  0
    3.7613   -4.2402    6.1669 N   0  0  0  0  0  0
    5.1316   -4.7194    6.0108 C   0  0  0  0  0  0
    5.6005   -5.4283    7.2928 C   0  0  0  0  0  0
    4.6875   -6.4685    7.6266 O   0  0  0  0  0  0
    3.3812   -5.9639    7.8842 C   0  0  0  0  0  0
    2.8323   -5.2705    6.6250 C   0  0  0  0  0  0
    3.9128   -3.0790    3.9858 C   0  0  0  0  0  0
    3.3866   -2.1609    3.0569 C   0  0  0  0  0  0
    2.0756   -0.6899   -1.3728 C   0  0  0  0  0  0
    3.6171   -0.6658   -1.3701 C   0  0  0  0  0  0
    4.1557    0.7683   -1.2662 C   0  0  0  0  0  0
    3.5677    1.4948   -0.0482 C   0  0  0  0  0  0
    2.0285    1.4630   -0.0779 C   0  0  0  0  0  0
   -2.7544   -0.0637    0.3214 H   0  0  0  0  0  0
   -2.6351   -1.7218    0.8913 H   0  0  0  0  0  0
   -0.3507   -1.5912    0.8269 H   0  0  0  0  0  0
    2.3745   -1.5960    0.8709 H   0  0  0  0  0  0
    0.6197   -1.1778    4.8031 H   0  0  0  0  0  0
    1.5400   -2.7621    6.4238 H   0  0  0  0  0  0
    5.1799   -5.4091    5.1670 H   0  0  0  0  0  0
    5.8012   -3.8857    5.7953 H   0  0  0  0  0  0
    6.5904   -5.8589    7.1424 H   0  0  0  0  0  0
    5.6829   -4.7215    8.1203 H   0  0  0  0  0  0
    2.7319   -6.7912    8.1704 H   0  0  0  0  0  0
    3.4065   -5.2731    8.7286 H   0  0  0  0  0  0
    1.8481   -4.8605    6.8466 H   0  0  0  0  0  0
    2.6980   -6.0018    5.8270 H   0  0  0  0  0  0
    4.8285   -3.5882    3.7257 H   0  0  0  0  0  0
    3.9217   -1.9915    2.1338 H   0  0  0  0  0  0
    1.7351   -1.7252   -1.4276 H   0  0  0  0  0  0
    1.7246   -0.2124   -2.2897 H   0  0  0  0  0  0
    4.0002   -1.2618   -0.5410 H   0  0  0  0  0  0
    3.9939   -1.1344   -2.2796 H   0  0  0  0  0  0
    5.2443    0.7551   -1.2036 H   0  0  0  0  0  0
    3.9048    1.3181   -2.1742 H   0  0  0  0  0  0
    3.9366    1.0375    0.8705 H   0  0  0  0  0  0
    3.9146    2.5284   -0.0343 H   0  0  0  0  0  0
    1.7038    2.0307   -0.9514 H   0  0  0  0  0  0
    1.6359    2.0081    0.7804 H   0  0  0  0  0  0
  1  2  3  0  0  0
  2  3  1  0  0  0
  3  4  1  0  0  0
  3 28  1  0  0  0
  3 29  1  0  0  0
  4  5  1  0  0  0
  4 30  1  0  0  0
  5  6  2  0  0  0
  5  7  1  0  0  0
  7 27  1  0  0  0
  7  8  1  0  0  0
  7 23  1  0  0  0
  8  9  1  0  0  0
  8 31  1  0  0  0
  9 10  2  0  0  0
  9 11  1  0  0  0
 11 22  1  0  0  0
 11 12  2  0  0  0
 12 13  1  0  0  0
 12 32  1  0  0  0
 13 14  2  0  0  0
 13 33  1  0  0  0
 14 15  1  0  0  0
 14 21  1  0  0  0
 15 20  1  0  0  0
 15 16  1  0  0  0
 16 17  1  0  0  0
 16 34  1  0  0  0
 16 35  1  0  0  0
 17 18  1  0  0  0
 17 36  1  0  0  0
 17 37  1  0  0  0
 18 19  1  0  0  0
 19 20  1  0  0  0
 19 38  1  0  0  0
 19 39  1  0  0  0
 20 40  1  0  0  0
 20 41  1  0  0  0
 21 22  2  0  0  0
 21 42  1  0  0  0
 22 43  1  0  0  0
 23 24  1  0  0  0
 23 44  1  0  0  0
 23 45  1  0  0  0
 24 25  1  0  0  0
 24 46  1  0  0  0
 24 47  1  0  0  0
 25 26  1  0  0  0
 25 48  1  0  0  0
 25 49  1  0  0  0
 26 27  1  0  0  0
 26 50  1  0  0  0
 26 51  1  0  0  0
 27 52  1  0  0  0
 27 53  1  0  0  0
M  END
$$$$
67
                    3D
 Schrodinger Suite 2021-2.
 47 50  0  0  1  0            999 V2000
   -4.9471   -4.5901   -2.7049 C   0  0  0  0  0  0
   -5.0955   -3.2634   -2.2307 O   0  0  0  0  0  0
   -4.6492   -3.1103   -0.8934 C   0  0  0  0  0  0
   -4.7228   -1.6597   -0.4164 C   0  0  0  0  0  0
   -3.4128   -1.9000    0.1782 N   0  0  0  0  0  0
   -2.4958   -0.8120    0.1592 C   0  0  0  0  0  0
   -1.0991   -0.9870    0.0265 C   0  0  0  0  0  0
   -0.2755    0.1583    0.0392 C   0  0  0  0  0  0
    1.1964    0.1001   -0.0977 C   0  0  0  0  0  0
    1.8363   -0.9570   -0.7849 C   0  0  0  0  0  0
    3.1730   -1.0614   -0.9403 N   0  0  0  0  0  0
    3.9542   -0.1036   -0.4024 C   0  0  0  0  0  0
    5.3277   -0.2496   -0.5890 N   0  0  0  0  0  0
    3.4427    0.9963    0.3187 C   0  0  0  0  0  0
    4.3149    1.9361    0.8241 O   0  0  0  0  0  0
    3.9898    2.5960    1.9676 C   0  0  0  0  0  0
    5.1174    2.9209    2.6446 F   0  0  0  0  0  0
    3.3380    3.7495    1.6801 F   0  0  0  0  0  0
    2.0375    1.0926    0.4586 C   0  0  0  0  0  0
   -0.8226    1.3844    0.1821 N   0  0  0  0  0  0
   -2.1500    1.4969    0.3211 C   0  0  0  0  0  0
   -2.7532    2.7747    0.4734 N   0  0  0  0  0  0
   -2.5821    3.6596   -0.6730 C   0  0  0  0  0  0
   -2.4008    4.7887    0.3388 C   0  0  0  0  0  0
   -2.0733    3.7087    1.3673 C   0  0  0  0  0  0
   -2.9751    0.4459    0.3153 N   0  0  0  0  0  0
   -3.1295   -2.9918   -0.7436 C   0  0  0  0  0  0
   -5.3092   -4.6540   -3.7309 H   0  0  0  0  0  0
   -3.9015   -4.9001   -2.6973 H   0  0  0  0  0  0
   -5.5243   -5.2906   -2.1001 H   0  0  0  0  0  0
   -5.1090   -3.8066   -0.1878 H   0  0  0  0  0  0
   -4.7048   -0.9363   -1.2339 H   0  0  0  0  0  0
   -5.5114   -1.4590    0.3088 H   0  0  0  0  0  0
   -0.6767   -1.9760   -0.0703 H   0  0  0  0  0  0
    1.2601   -1.7471   -1.2426 H   0  0  0  0  0  0
    5.9828    0.4275   -0.2253 H   0  0  0  0  0  0
    5.7101   -1.0275   -1.1072 H   0  0  0  0  0  0
    3.3718    1.9837    2.6249 H   0  0  0  0  0  0
    1.6031    1.9257    0.9908 H   0  0  0  0  0  0
   -1.6841    3.4594   -1.2601 H   0  0  0  0  0  0
   -3.4738    3.7514   -1.2936 H   0  0  0  0  0  0
   -1.5725    5.4619    0.1163 H   0  0  0  0  0  0
   -3.3231    5.3301    0.5562 H   0  0  0  0  0  0
   -2.5743    3.8396    2.3266 H   0  0  0  0  0  0
   -1.0007    3.5448    1.4801 H   0  0  0  0  0  0
   -2.6497   -3.8535   -0.2792 H   0  0  0  0  0  0
   -2.6284   -2.6685   -1.6581 H   0  0  0  0  0  0
  1  2  1  0  0  0
  1 28  1  0  0  0
  1 29  1  0  0  0
  1 30  1  0  0  0
  2  3  1  0  0  0
  3 27  1  0  0  0
  3  4  1  0  0  0
  3 31  1  0  0  0
  4  5  1  0  0  0
  4 32  1  0  0  0
  4 33  1  0  0  0
  5  6  1  0  0  0
  5 27  1  0  0  0
  6 26  1  0  0  0
  6  7  2  0  0  0
  7  8  1  0  0  0
  7 34  1  0  0  0
  8  9  1  0  0  0
  8 20  2  0  0  0
  9 19  1  0  0  0
  9 10  2  0  0  0
 10 11  1  0  0  0
 10 35  1  0  0  0
 11 12  2  0  0  0
 12 13  1  0  0  0
 12 14  1  0  0  0
 13 36  1  0  0  0
 13 37  1  0  0  0
 14 15  1  0  0  0
 14 19  2  0  0  0
 15 16  1  0  0  0
 16 17  1  0  0  0
 16 18  1  0  0  0
 16 38  1  0  0  0
 19 39  1  0  0  0
 20 21  1  0  0  0
 21 22  1  0  0  0
 21 26  2  0  0  0
 22 25  1  0  0  0
 22 23  1  0  0  0
 23 24  1  0  0  0
 23 40  1  0  0  0
 23 41  1  0  0  0
 24 25  1  0  0  0
 24 42  1  0  0  0
 24 43  1  0  0  0
 25 44  1  0  0  0
 25 45  1  0  0  0
 27 46  1  0  0  0
 27 47  1  0  0  0
M  END
$$$$
68
                    3D
 Schrodinger Suite 2021-2.
 49 51  0  0  1  0            999 V2000
    0.8023    5.0202   -1.4214 C   0  0  0  0  0  0
   -0.6317    4.7816   -1.3746 N   0  0  0  0  0  0
   -1.1362    3.5248   -1.0096 C   0  0  0  0  0  0
   -0.2675    2.5429   -0.6703 N   0  0  0  0  0  0
   -0.7759    1.3552   -0.3250 C   0  0  0  0  0  0
    0.0984    0.3370    0.0064 N   0  0  0  0  0  0
    1.4964    0.2310    0.0036 C   0  0  0  0  0  0
    2.3030    1.2774    0.5028 C   0  0  0  0  0  0
    3.7037    1.1592    0.5032 C   0  0  0  0  0  0
    4.3122   -0.0097    0.0071 C   0  0  0  0  0  0
    5.8286   -0.1370   -0.0007 C   0  0  0  0  0  0
    6.4672    0.4438   -1.2773 C   0  0  0  0  0  0
    5.7437    0.9551   -2.1344 O   0  0  0  0  0  0
    7.8127    0.3767   -1.4215 N   0  0  0  0  0  0
    8.7495   -0.2689   -0.4962 C   0  0  0  0  0  0
    9.3922   -1.4676   -1.2168 C   0  0  0  0  0  0
   10.0449   -1.0198   -2.4025 O   0  0  0  0  0  0
    9.1660   -0.3594   -3.3104 C   0  0  0  0  0  0
    8.5169    0.8515   -2.6160 C   0  0  0  0  0  0
    3.5095   -1.0625   -0.4785 C   0  0  0  0  0  0
    2.0953   -0.9555   -0.4819 C   0  0  0  0  0  0
    1.2569   -1.9516   -0.9424 O   0  0  0  0  0  0
    1.8384   -3.1513   -1.4306 C   0  0  0  0  0  0
   -2.0706    1.0336   -0.2861 N   0  0  0  0  0  0
   -2.9517    2.0010   -0.6203 C   0  0  0  0  0  0
   -2.5304    3.2922   -0.9979 C   0  0  0  0  0  0
   -3.6796    4.5117   -1.4222 Cl  0  0  0  0  0  0
    0.9983    6.0504   -1.7187 H   0  0  0  0  0  0
    1.2548    4.8548   -0.4430 H   0  0  0  0  0  0
    1.2804    4.3593   -2.1449 H   0  0  0  0  0  0
   -1.2654    5.5200   -1.6444 H   0  0  0  0  0  0
   -0.3617   -0.5584    0.0832 H   0  0  0  0  0  0
    1.8540    2.1781    0.8945 H   0  0  0  0  0  0
    4.3092    1.9694    0.8819 H   0  0  0  0  0  0
    6.2299    0.3777    0.8732 H   0  0  0  0  0  0
    6.0941   -1.1907    0.0930 H   0  0  0  0  0  0
    9.5191    0.4485   -0.2076 H   0  0  0  0  0  0
    8.2938   -0.6031    0.4341 H   0  0  0  0  0  0
   10.1267   -1.9476   -0.5701 H   0  0  0  0  0  0
    8.6422   -2.2206   -1.4646 H   0  0  0  0  0  0
    9.7364   -0.0350   -4.1808 H   0  0  0  0  0  0
    8.4058   -1.0562   -3.6671 H   0  0  0  0  0  0
    7.8641    1.3719   -3.3179 H   0  0  0  0  0  0
    9.2813    1.5726   -2.3233 H   0  0  0  0  0  0
    4.0045   -1.9470   -0.8494 H   0  0  0  0  0  0
    1.0472   -3.8294   -1.7499 H   0  0  0  0  0  0
    2.4784   -2.9626   -2.2937 H   0  0  0  0  0  0
    2.4142   -3.6593   -0.6558 H   0  0  0  0  0  0
   -3.9995    1.7416   -0.5870 H   0  0  0  0  0  0
  1  2  1  0  0  0
  1 28  1  0  0  0
  1 29  1  0  0  0
  1 30  1  0  0  0
  2  3  1  0  0  0
  2 31  1  0  0  0
  3 26  1  0  0  0
  3  4  2  0  0  0
  4  5  1  0  0  0
  5  6  1  0  0  0
  5 24  2  0  0  0
  6  7  1  0  0  0
  6 32  1  0  0  0
  7 21  1  0  0  0
  7  8  2  0  0  0
  8  9  1  0  0  0
  8 33  1  0  0  0
  9 10  2  0  0  0
  9 34  1  0  0  0
 10 11  1  0  0  0
 10 20  1  0  0  0
 11 12  1  0  0  0
 11 35  1  0  0  0
 11 36  1  0  0  0
 12 13  2  0  0  0
 12 14  1  0  0  0
 14 19  1  0  0  0
 14 15  1  0  0  0
 15 16  1  0  0  0
 15 37  1  0  0  0
 15 38  1  0  0  0
 16 17  1  0  0  0
 16 39  1  0  0  0
 16 40  1  0  0  0
 17 18  1  0  0  0
 18 19  1  0  0  0
 18 41  1  0  0  0
 18 42  1  0  0  0
 19 43  1  0  0  0
 19 44  1  0  0  0
 20 21  2  0  0  0
 20 45  1  0  0  0
 21 22  1  0  0  0
 22 23  1  0  0  0
 23 46  1  0  0  0
 23 47  1  0  0  0
 23 48  1  0  0  0
 24 25  1  0  0  0
 25 26  2  0  0  0
 25 49  1  0  0  0
 26 27  1  0  0  0
M  END
$$$$
69
                    3D
 Schrodinger Suite 2021-2.
 50 53  0  0  1  0            999 V2000
   -3.4965    6.6186    2.6689 C   0  0  0  0  0  0
   -2.8896    6.5073    1.2851 C   0  0  0  0  0  0
   -2.9645    7.5378    0.4122 N   0  0  0  0  0  0
   -2.3834    7.3595   -0.8273 C   0  0  0  0  0  0
   -2.4449    8.6557   -2.0027 S   0  0  0  0  0  0
   -1.5435    7.6363   -3.1451 C   0  0  0  0  0  0
   -1.2261    6.3807   -2.6582 C   0  0  0  0  0  0
   -1.7176    6.2545   -1.3321 C   0  0  0  0  0  0
   -1.6996    5.2063   -0.3215 C   0  0  0  0  0  0
   -1.1341    4.0711   -0.5582 N   0  0  0  0  0  0
   -1.3864    3.4859    0.6671 C   0  0  0  0  0  0
   -0.9006    2.1028    0.9970 C   0  0  0  0  0  0
   -0.8929    1.6939    2.1589 O   0  0  0  0  0  0
   -0.5051    1.3664   -0.0544 N   0  0  0  0  0  0
    0.0410    0.0161    0.0180 C   0  0  0  0  0  0
    1.5755    0.0381    0.0412 C   0  0  0  0  0  0
    2.0244    0.6017    1.2627 O   0  0  0  0  0  0
    3.4377    0.6771    1.3482 C   0  0  0  0  0  0
    3.8264    1.3299    2.6802 C   0  0  0  0  0  0
    3.8287    0.3672    3.7125 O   0  0  0  0  0  0
   -2.0540    4.2231    1.5787 N   0  0  0  0  0  0
   -2.2469    5.3668    0.8670 N   0  0  0  0  0  0
   -0.4890    5.3492   -3.4669 C   0  0  0  0  0  0
    0.1037    5.9190   -4.7795 C   0  0  1  0  0  0
    0.4939    4.7967   -5.7523 C   0  0  0  0  0  0
   -0.8387    6.9461   -5.4488 C   0  0  0  0  0  0
   -1.1832    8.1162   -4.5104 C   0  0  0  0  0  0
    1.0144    6.4589   -4.5158 H   0  0  0  0  0  0
   -3.9636    7.5932    2.8140 H   0  0  0  0  0  0
   -4.2565    5.8501    2.8119 H   0  0  0  0  0  0
   -2.7274    6.4910    3.4310 H   0  0  0  0  0  0
   -0.5628    1.7895   -0.9696 H   0  0  0  0  0  0
   -0.3489   -0.5265    0.8809 H   0  0  0  0  0  0
   -0.3000   -0.5255   -0.8644 H   0  0  0  0  0  0
    1.9572   -0.9797   -0.0517 H   0  0  0  0  0  0
    1.9572    0.6088   -0.8072 H   0  0  0  0  0  0
    3.8986   -0.3062    1.2394 H   0  0  0  0  0  0
    3.8024    1.2983    0.5288 H   0  0  0  0  0  0
    4.8344    1.7390    2.6100 H   0  0  0  0  0  0
    3.1592    2.1562    2.9276 H   0  0  0  0  0  0
    4.0618    0.7956    4.5220 H   0  0  0  0  0  0
    0.3081    4.8981   -2.8753 H   0  0  0  0  0  0
   -1.1799    4.5400   -3.7061 H   0  0  0  0  0  0
   -0.3795    4.2266   -6.0703 H   0  0  0  0  0  0
    0.9720    5.1990   -6.6458 H   0  0  0  0  0  0
    1.1946    4.1019   -5.2885 H   0  0  0  0  0  0
   -0.4010    7.3305   -6.3708 H   0  0  0  0  0  0
   -1.7608    6.4387   -5.7354 H   0  0  0  0  0  0
   -1.9981    8.7054   -4.9318 H   0  0  0  0  0  0
   -0.3246    8.7839   -4.4338 H   0  0  0  0  0  0
  1  2  1  0  0  0
  1 29  1  0  0  0
  1 30  1  0  0  0
  1 31  1  0  0  0
  2 22  1  0  0  0
  2  3  2  0  0  0
  3  4  1  0  0  0
  4  8  2  0  0  0
  4  5  1  0  0  0
  5  6  1  0  0  0
  6 27  1  0  0  0
  6  7  2  0  0  0
  7  8  1  0  0  0
  7 23  1  0  0  0
  8  9  1  0  0  0
  9 22  1  0  0  0
  9 10  2  0  0  0
 10 11  1  0  0  0
 11 12  1  0  0  0
 11 21  2  0  0  0
 12 13  2  0  0  0
 12 14  1  0  0  0
 14 15  1  0  0  0
 14 32  1  0  0  0
 15 16  1  0  0  0
 15 33  1  0  0  0
 15 34  1  0  0  0
 16 17  1  0  0  0
 16 35  1  0  0  0
 16 36  1  0  0  0
 17 18  1  0  0  0
 18 19  1  0  0  0
 18 37  1  0  0  0
 18 38  1  0  0  0
 19 20  1  0  0  0
 19 39  1  0  0  0
 19 40  1  0  0  0
 20 41  1  0  0  0
 21 22  1  0  0  0
 23 24  1  0  0  0
 23 42  1  0  0  0
 23 43  1  0  0  0
 24 28  1  0  0  0
 24 25  1  0  0  0
 24 26  1  0  0  0
 25 44  1  0  0  0
 25 45  1  0  0  0
 25 46  1  0  0  0
 26 27  1  0  0  0
 26 47  1  0  0  0
 26 48  1  0  0  0
 27 49  1  0  0  0
 27 50  1  0  0  0
M  END
$$$$
70
                    3D
 Schrodinger Suite 2021-2.
 45 48  0  0  1  0            999 V2000
   -2.7711    6.8288    1.6882 O   0  0  0  0  0  0
   -2.2481    5.8182    1.2240 C   0  0  0  0  0  0
   -2.3946    4.4210    1.8533 C   0  0  0  0  0  0
   -1.5636    3.6270    0.8762 C   0  0  0  0  0  0
   -1.2842    2.2497    0.8841 C   0  0  0  0  0  0
   -0.4657    1.7443   -0.1536 C   0  0  0  0  0  0
   -0.0441    0.0060   -0.1919 S   0  0  0  0  0  0
   -0.7157   -0.7009    0.9100 O   0  0  0  0  0  0
   -0.1445   -0.4778   -1.5773 O   0  0  0  0  0  0
    1.6518    0.0044    0.1837 N   0  0  0  0  0  0
    2.3158    0.6063    1.2578 C   0  0  0  0  0  0
    1.6389    0.9870    2.4367 C   0  0  0  0  0  0
    2.3403    1.5971    3.4941 C   0  0  0  0  0  0
    3.7298    1.8328    3.3869 C   0  0  0  0  0  0
    4.4575    2.4542    4.4123 N   0  0  0  0  0  0
    4.2956    3.9019    4.4214 C   0  0  0  0  0  0
    5.2381    4.5328    5.4619 C   0  0  0  0  0  0
    5.0093    3.9439    6.7393 O   0  0  0  0  0  0
    5.2513    2.5396    6.7315 C   0  0  0  0  0  0
    4.2967    1.8604    5.7343 C   0  0  0  0  0  0
    4.4036    1.4515    2.2088 C   0  0  0  0  0  0
    3.7022    0.8367    1.1538 C   0  0  0  0  0  0
    0.0495    2.5936   -1.1651 C   0  0  0  0  0  0
   -0.2444    3.9758   -1.1543 C   0  0  0  0  0  0
   -1.0560    4.4584   -0.1140 C   0  0  0  0  0  0
   -1.4840    5.7661    0.1224 N   0  0  0  0  0  0
   -1.9771    4.3855    2.8599 H   0  0  0  0  0  0
   -3.4332    4.0897    1.8607 H   0  0  0  0  0  0
   -1.6784    1.6091    1.6590 H   0  0  0  0  0  0
    2.2551   -0.3076   -0.5634 H   0  0  0  0  0  0
    0.5795    0.8165    2.5473 H   0  0  0  0  0  0
    1.7993    1.8892    4.3818 H   0  0  0  0  0  0
    4.5072    4.3076    3.4313 H   0  0  0  0  0  0
    3.2600    4.1510    4.6577 H   0  0  0  0  0  0
    6.2815    4.4003    5.1715 H   0  0  0  0  0  0
    5.0595    5.6062    5.5282 H   0  0  0  0  0  0
    6.2925    2.3402    6.4728 H   0  0  0  0  0  0
    5.0906    2.1455    7.7350 H   0  0  0  0  0  0
    3.2690    1.9792    6.0789 H   0  0  0  0  0  0
    4.5023    0.7902    5.6866 H   0  0  0  0  0  0
    5.4651    1.6277    2.1111 H   0  0  0  0  0  0
    4.2342    0.5495    0.2583 H   0  0  0  0  0  0
    0.6752    2.1855   -1.9453 H   0  0  0  0  0  0
    0.1435    4.6358   -1.9163 H   0  0  0  0  0  0
   -1.2381    6.5467   -0.4690 H   0  0  0  0  0  0
  1  2  2  0  0  0
  2 26  1  0  0  0
  2  3  1  0  0  0
  3  4  1  0  0  0
  3 27  1  0  0  0
  3 28  1  0  0  0
  4 25  2  0  0  0
  4  5  1  0  0  0
  5  6  2  0  0  0
  5 29  1  0  0  0
  6  7  1  0  0  0
  6 23  1  0  0  0
  7  8  2  0  0  0
  7  9  2  0  0  0
  7 10  1  0  0  0
 10 11  1  0  0  0
 10 30  1  0  0  0
 11 22  1  0  0  0
 11 12  2  0  0  0
 12 13  1  0  0  0
 12 31  1  0  0  0
 13 14  2  0  0  0
 13 32  1  0  0  0
 14 15  1  0  0  0
 14 21  1  0  0  0
 15 20  1  0  0  0
 15 16  1  0  0  0
 16 17  1  0  0  0
 16 33  1  0  0  0
 16 34  1  0  0  0
 17 18  1  0  0  0
 17 35  1  0  0  0
 17 36  1  0  0  0
 18 19  1  0  0  0
 19 20  1  0  0  0
 19 37  1  0  0  0
 19 38  1  0  0  0
 20 39  1  0  0  0
 20 40  1  0  0  0
 21 22  2  0  0  0
 21 41  1  0  0  0
 22 42  1  0  0  0
 23 24  2  0  0  0
 23 43  1  0  0  0
 24 25  1  0  0  0
 24 44  1  0  0  0
 25 26  1  0  0  0
 26 45  1  0  0  0
M  END
$$$$
71
                    3D
 Schrodinger Suite 2021-2.
 41 42  0  0  1  0            999 V2000
   -2.0428   -3.3153   -0.7754 C   0  0  0  0  0  0
   -1.9102   -1.8058   -0.5594 C   0  0  0  0  0  0
   -0.5416   -1.4785   -0.3812 O   0  0  0  0  0  0
   -0.1746   -0.2024   -0.1483 C   0  0  0  0  0  0
   -0.9828    0.7258   -0.0862 O   0  0  0  0  0  0
    1.3014   -0.0586    0.0388 C   0  0  0  0  0  0
    1.9244    1.1457    0.0503 C   0  0  0  0  0  0
    1.2998    2.5217   -0.1135 C   0  0  0  0  0  0
    0.6519    2.9193    1.0834 O   0  0  0  0  0  0
    0.0054    4.0986    1.1428 C   0  0  0  0  0  0
   -0.0375    4.9020    0.2090 O   0  0  0  0  0  0
   -0.6520    4.3309    2.4607 C   0  0  0  0  0  0
   -1.3017    5.5633    2.7054 C   0  0  0  0  0  0
   -1.9320    5.8085    3.9410 C   0  0  0  0  0  0
   -1.9221    4.8235    4.9456 C   0  0  0  0  0  0
   -1.2809    3.5925    4.7134 C   0  0  0  0  0  0
   -1.2679    2.2569    6.0688 Br  0  0  0  0  0  0
   -0.6490    3.3461    3.4791 C   0  0  0  0  0  0
    3.3167    1.2156    0.1695 N   0  0  0  0  0  0
    4.1561    0.1604    0.1820 C   0  0  0  0  0  0
    5.3755    0.2961    0.2339 O   0  0  0  0  0  0
    3.5724   -1.0502    0.0896 N   0  0  0  0  0  0
    2.1391   -1.3325    0.2100 C   0  0  1  0  0  0
    1.8868   -2.0160    1.5668 C   0  0  0  0  0  0
   -3.0866   -3.5963   -0.9154 H   0  0  0  0  0  0
   -1.4890   -3.6357   -1.6582 H   0  0  0  0  0  0
   -1.6594   -3.8696    0.0819 H   0  0  0  0  0  0
   -2.3112   -1.2665   -1.4187 H   0  0  0  0  0  0
   -2.4819   -1.5025    0.3188 H   0  0  0  0  0  0
    2.0750    3.2502   -0.3575 H   0  0  0  0  0  0
    0.6002    2.5140   -0.9501 H   0  0  0  0  0  0
   -1.3222    6.3349    1.9491 H   0  0  0  0  0  0
   -2.4241    6.7538    4.1175 H   0  0  0  0  0  0
   -2.4058    5.0125    5.8926 H   0  0  0  0  0  0
   -0.1684    2.3899    3.3321 H   0  0  0  0  0  0
    3.7197    2.1410    0.2020 H   0  0  0  0  0  0
    4.1836   -1.8526    0.0419 H   0  0  0  0  0  0
    1.9037   -2.0275   -0.5970 H   0  0  0  0  0  0
    0.8494   -2.3295    1.6810 H   0  0  0  0  0  0
    2.5054   -2.9073    1.6766 H   0  0  0  0  0  0
    2.1217   -1.3463    2.3949 H   0  0  0  0  0  0
  1  2  1  0  0  0
  1 25  1  0  0  0
  1 26  1  0  0  0
  1 27  1  0  0  0
  2  3  1  0  0  0
  2 28  1  0  0  0
  2 29  1  0  0  0
  3  4  1  0  0  0
  4  5  2  0  0  0
  4  6  1  0  0  0
  6 23  1  0  0  0
  6  7  2  0  0  0
  7  8  1  0  0  0
  7 19  1  0  0  0
  8  9  1  0  0  0
  8 30  1  0  0  0
  8 31  1  0  0  0
  9 10  1  0  0  0
 10 11  2  0  0  0
 10 12  1  0  0  0
 12 18  1  0  0  0
 12 13  2  0  0  0
 13 14  1  0  0  0
 13 32  1  0  0  0
 14 15  2  0  0  0
 14 33  1  0  0  0
 15 16  1  0  0  0
 15 34  1  0  0  0
 16 17  1  0  0  0
 16 18  2  0  0  0
 18 35  1  0  0  0
 19 20  1  0  0  0
 19 36  1  0  0  0
 20 21  2  0  0  0
 20 22  1  0  0  0
 22 23  1  0  0  0
 22 37  1  0  0  0
 23 24  1  0  0  0
 23 38  1  0  0  0
 24 39  1  0  0  0
 24 40  1  0  0  0
 24 41  1  0  0  0
M  END
$$$$
72
                    3D
 Schrodinger Suite 2021-2.
 48 52  0  0  1  0            999 V2000
   -0.3000    2.2194    0.0349 O   0  0  0  0  0  0
   -0.7584    1.0771    0.0086 C   0  0  0  0  0  0
   -0.0189   -0.0519    0.0046 N   0  0  0  0  0  0
    1.4398   -0.1421    0.0369 C   0  0  0  0  0  0
    1.9824   -0.0295    1.4718 C   0  0  0  0  0  0
    2.1429   -1.3148    2.0328 O   0  0  0  0  0  0
   -0.8751   -1.1536    0.0036 C   0  0  0  0  0  0
   -0.6017   -2.5279    0.0165 C   0  0  0  0  0  0
   -1.6100   -3.4256    0.0185 N   0  0  0  0  0  0
   -2.8978   -2.9875    0.0112 C   0  0  0  0  0  0
   -3.9461   -3.9318    0.0158 C   0  0  0  0  0  0
   -5.2845   -3.5017    0.0098 C   0  0  0  0  0  0
   -5.5470   -2.1164   -0.0000 C   0  0  0  0  0  0
   -6.9142   -1.5744   -0.0090 C   0  0  0  0  0  0
   -7.3159   -0.2018   -0.0184 C   0  0  0  0  0  0
   -8.6804   -0.2421   -0.0303 C   0  0  0  0  0  0
   -9.0301   -1.5699   -0.0251 N   0  0  0  0  0  0
   -7.9637   -2.3904   -0.0113 N   0  0  0  0  0  0
   -4.5525   -1.2047   -0.0039 N   0  0  0  0  0  0
   -3.2598   -1.5983    0.0002 C   0  0  0  0  0  0
   -2.1730   -0.6843   -0.0042 C   0  0  0  0  0  0
   -2.0750    0.7351   -0.0095 N   0  0  0  0  0  0
   -3.2036    1.6881   -0.0216 C   0  0  0  0  0  0
   -3.2010    2.5964   -1.2655 C   0  0  0  0  0  0
   -4.3872    3.5728   -1.2086 C   0  0  0  0  0  0
   -4.3342    4.3352   -0.0063 O   0  0  0  0  0  0
   -4.4424    3.5362    1.1683 C   0  0  0  0  0  0
   -3.2612    2.5548    1.2502 C   0  0  0  0  0  0
   -9.9753   -1.9263   -0.0318 H   0  0  0  0  0  0
    1.7929   -1.0486   -0.4562 H   0  0  0  0  0  0
    1.8387    0.6824   -0.5563 H   0  0  0  0  0  0
    2.9643    0.4439    1.4555 H   0  0  0  0  0  0
    1.3439    0.5860    2.1068 H   0  0  0  0  0  0
    2.4959   -1.2200    2.9044 H   0  0  0  0  0  0
    0.4071   -2.9130    0.0273 H   0  0  0  0  0  0
   -3.7246   -4.9892    0.0243 H   0  0  0  0  0  0
   -6.0845   -4.2272    0.0132 H   0  0  0  0  0  0
   -6.6921    0.6801   -0.0187 H   0  0  0  0  0  0
   -9.4176    0.5472   -0.0423 H   0  0  0  0  0  0
   -4.1442    1.1546   -0.0575 H   0  0  0  0  0  0
   -2.2783    3.1725   -1.3301 H   0  0  0  0  0  0
   -3.2582    1.9932   -2.1721 H   0  0  0  0  0  0
   -4.3520    4.2535   -2.0593 H   0  0  0  0  0  0
   -5.3358    3.0368   -1.2695 H   0  0  0  0  0  0
   -4.4459    4.1908    2.0399 H   0  0  0  0  0  0
   -5.3935    3.0011    1.1692 H   0  0  0  0  0  0
   -3.3633    1.9225    2.1328 H   0  0  0  0  0  0
   -2.3409    3.1245    1.3778 H   0  0  0  0  0  0
  1  2  2  0  0  0
  2 22  1  0  0  0
  2  3  1  0  0  0
  3  4  1  0  0  0
  3  7  1  0  0  0
  4  5  1  0  0  0
  4 30  1  0  0  0
  4 31  1  0  0  0
  5  6  1  0  0  0
  5 32  1  0  0  0
  5 33  1  0  0  0
  6 34  1  0  0  0
  7 21  2  0  0  0
  7  8  1  0  0  0
  8  9  2  0  0  0
  8 35  1  0  0  0
  9 10  1  0  0  0
 10 20  1  0  0  0
 10 11  2  0  0  0
 11 12  1  0  0  0
 11 36  1  0  0  0
 12 13  2  0  0  0
 12 37  1  0  0  0
 13 14  1  0  0  0
 13 19  1  0  0  0
 14 18  2  0  0  0
 14 15  1  0  0  0
 15 16  2  0  0  0
 15 38  1  0  0  0
 16 17  1  0  0  0
 16 39  1  0  0  0
 17 29  1  0  0  0
 17 18  1  0  0  0
 19 20  2  0  0  0
 20 21  1  0  0  0
 21 22  1  0  0  0
 22 23  1  0  0  0
 23 28  1  0  0  0
 23 24  1  0  0  0
 23 40  1  0  0  0
 24 25  1  0  0  0
 24 41  1  0  0  0
 24 42  1  0  0  0
 25 26  1  0  0  0
 25 43  1  0  0  0
 25 44  1  0  0  0
 26 27  1  0  0  0
 27 28  1  0  0  0
 27 45  1  0  0  0
 27 46  1  0  0  0
 28 47  1  0  0  0
 28 48  1  0  0  0
M  END
$$$$
73
                    3D
 Schrodinger Suite 2021-2.
 42 44  0  0  1  0            999 V2000
   -1.5416   -3.1425   -0.4688 C   0  0  0  0  0  0
   -1.3840   -1.6201   -0.4536 C   0  0  0  0  0  0
   -0.0099   -1.2933   -0.3263 O   0  0  0  0  0  0
    0.3777   -0.0015   -0.3193 C   0  0  0  0  0  0
   -0.3993    0.9499   -0.4181 O   0  0  0  0  0  0
    1.8322    0.1737   -0.1843 C   0  0  0  0  0  0
    2.8184   -1.2582    0.0026 S   0  0  0  0  0  0
    4.2847   -0.2969    0.0928 C   0  0  0  0  0  0
    5.6027   -0.7658    0.2548 C   0  0  0  0  0  0
    6.6709    0.1455    0.3020 C   0  0  0  0  0  0
    6.4063    1.5217    0.1806 C   0  0  0  0  0  0
    7.7579    2.6935    0.2320 S   0  0  0  0  0  0
    7.2312    3.9877    0.6932 O   0  0  0  0  0  0
    8.8872    2.0677    0.9378 O   0  0  0  0  0  0
    8.2050    2.8665   -1.4403 N   0  0  0  0  0  0
    8.9483    1.7851   -2.1106 C   0  0  0  0  0  0
    8.0181    0.9445   -3.0035 C   0  0  0  0  0  0
    7.3231    1.7876   -3.9108 O   0  0  0  0  0  0
    6.4901    2.7176   -3.2337 C   0  0  0  0  0  0
    7.3433    3.6438   -2.3485 C   0  0  0  0  0  0
    5.0859    1.9899    0.0316 C   0  0  0  0  0  0
    3.9861    1.0992   -0.0226 C   0  0  0  0  0  0
    2.5654    1.3425   -0.1806 C   0  0  0  0  0  0
    2.0791    2.6540   -0.3106 N   0  0  0  0  0  0
   -2.5908   -3.4225   -0.5652 H   0  0  0  0  0  0
   -0.9996   -3.5843   -1.3054 H   0  0  0  0  0  0
   -1.1600   -3.5858    0.4513 H   0  0  0  0  0  0
   -1.7839   -1.1940   -1.3749 H   0  0  0  0  0  0
   -1.9447   -1.1926    0.3787 H   0  0  0  0  0  0
    5.7925   -1.8255    0.3409 H   0  0  0  0  0  0
    7.6827   -0.2129    0.4207 H   0  0  0  0  0  0
    9.7295    2.2350   -2.7240 H   0  0  0  0  0  0
    9.4521    1.1539   -1.3791 H   0  0  0  0  0  0
    8.6022    0.2220   -3.5732 H   0  0  0  0  0  0
    7.3069    0.3715   -2.4088 H   0  0  0  0  0  0
    5.9486    3.3069   -3.9737 H   0  0  0  0  0  0
    5.7395    2.1869   -2.6484 H   0  0  0  0  0  0
    6.7091    4.3281   -1.7855 H   0  0  0  0  0  0
    7.9818    4.2603   -2.9817 H   0  0  0  0  0  0
    4.9056    3.0509   -0.0557 H   0  0  0  0  0  0
    2.6884    3.4511   -0.1948 H   0  0  0  0  0  0
    1.0861    2.8402   -0.3263 H   0  0  0  0  0  0
  1  2  1  0  0  0
  1 25  1  0  0  0
  1 26  1  0  0  0
  1 27  1  0  0  0
  2  3  1  0  0  0
  2 28  1  0  0  0
  2 29  1  0  0  0
  3  4  1  0  0  0
  4  5  2  0  0  0
  4  6  1  0  0  0
  6 23  2  0  0  0
  6  7  1  0  0  0
  7  8  1  0  0  0
  8 22  2  0  0  0
  8  9  1  0  0  0
  9 10  2  0  0  0
  9 30  1  0  0  0
 10 11  1  0  0  0
 10 31  1  0  0  0
 11 12  1  0  0  0
 11 21  2  0  0  0
 12 13  2  0  0  0
 12 14  2  0  0  0
 12 15  1  0  0  0
 15 20  1  0  0  0
 15 16  1  0  0  0
 16 17  1  0  0  0
 16 32  1  0  0  0
 16 33  1  0  0  0
 17 18  1  0  0  0
 17 34  1  0  0  0
 17 35  1  0  0  0
 18 19  1  0  0  0
 19 20  1  0  0  0
 19 36  1  0  0  0
 19 37  1  0  0  0
 20 38  1  0  0  0
 20 39  1  0  0  0
 21 22  1  0  0  0
 21 40  1  0  0  0
 22 23  1  0  0  0
 23 24  1  0  0  0
 24 41  1  0  0  0
 24 42  1  0  0  0
M  END
$$$$
74
                    3D
 Schrodinger Suite 2021-2.
 40 42  0  0  1  0            999 V2000
   -2.9789   -0.5925   -1.0319 C   0  0  0  0  0  0
   -2.5764    0.8749   -1.1307 C   0  0  0  0  0  0
   -2.7594    1.5000   -2.1766 O   0  0  0  0  0  0
   -1.9104    1.5012    0.1100 C   0  0  2  0  0  0
   -2.1494    3.0147    0.1644 C   0  0  0  0  0  0
   -3.2502    3.5148    0.3926 O   0  0  0  0  0  0
   -0.8673    3.7015   -0.0645 C   0  0  0  0  0  0
    0.1603    2.7518   -0.1285 C   0  0  0  0  0  0
    1.4927    3.1755   -0.3307 C   0  0  0  0  0  0
    1.7707    4.5525   -0.4429 C   0  0  0  0  0  0
    0.7301    5.5013   -0.3661 C   0  0  0  0  0  0
   -0.6090    5.0895   -0.1869 C   0  0  0  0  0  0
   -1.6725    6.1028   -0.1423 N   0  3  0  0  0  0
   -2.6039    5.9973   -0.9326 O   0  0  0  0  0  0
   -1.5445    7.0205    0.6606 O   0  5  0  0  0  0
   -0.3889    1.3797    0.0417 C   0  0  0  0  0  0
    0.1781    0.2399    0.1520 N   0  0  0  0  0  0
    1.5625    0.0918    0.1450 C   0  0  0  0  0  0
    2.3102    0.2810    1.3295 C   0  0  0  0  0  0
    3.7077    0.1036    1.3237 C   0  0  0  0  0  0
    4.3563   -0.2762    0.1313 C   0  0  0  0  0  0
    6.1304   -0.5088    0.1013 S   0  0  0  0  0  0
    6.6346    0.6816   -1.0341 N   0  0  0  0  0  0
    6.6782   -0.1243    1.4114 O   0  0  0  0  0  0
    6.4216   -1.8287   -0.4790 O   0  0  0  0  0  0
    3.6184   -0.4772   -1.0515 C   0  0  0  0  0  0
    2.2215   -0.2987   -1.0411 C   0  0  0  0  0  0
   -2.7080   -1.0061   -0.0603 H   0  0  0  0  0  0
   -4.0555   -0.6978   -1.1650 H   0  0  0  0  0  0
   -2.4760   -1.1730   -1.8055 H   0  0  0  0  0  0
   -2.2841    1.0351    1.0221 H   0  0  0  0  0  0
    2.3117    2.4787   -0.4018 H   0  0  0  0  0  0
    2.7877    4.8836   -0.5925 H   0  0  0  0  0  0
    0.9621    6.5522   -0.4606 H   0  0  0  0  0  0
    1.8129    0.5662    2.2452 H   0  0  0  0  0  0
    4.2695    0.2554    2.2333 H   0  0  0  0  0  0
    6.4987    1.6231   -0.6667 H   0  0  0  0  0  0
    7.6036    0.5342   -1.3155 H   0  0  0  0  0  0
    4.1192   -0.7723   -1.9620 H   0  0  0  0  0  0
    1.6558   -0.4602   -1.9474 H   0  0  0  0  0  0
  1  2  1  0  0  0
  1 28  1  0  0  0
  1 29  1  0  0  0
  1 30  1  0  0  0
  2  3  2  0  0  0
  2  4  1  0  0  0
  4 16  1  0  0  0
  4  5  1  0  0  0
  4 31  1  0  0  0
  5  6  2  0  0  0
  5  7  1  0  0  0
  7 12  2  0  0  0
  7  8  1  0  0  0
  8  9  2  0  0  0
  8 16  1  0  0  0
  9 10  1  0  0  0
  9 32  1  0  0  0
 10 11  2  0  0  0
 10 33  1  0  0  0
 11 12  1  0  0  0
 11 34  1  0  0  0
 12 13  1  0  0  0
 13 14  2  0  0  0
 13 15  1  0  0  0
 16 17  2  0  0  0
 17 18  1  0  0  0
 18 27  1  0  0  0
 18 19  2  0  0  0
 19 20  1  0  0  0
 19 35  1  0  0  0
 20 21  2  0  0  0
 20 36  1  0  0  0
 21 22  1  0  0  0
 21 26  1  0  0  0
 22 23  1  0  0  0
 22 24  2  0  0  0
 22 25  2  0  0  0
 23 37  1  0  0  0
 23 38  1  0  0  0
 26 27  2  0  0  0
 26 39  1  0  0  0
 27 40  1  0  0  0
M  CHG  2  13   1  15  -1
M  END
$$$$
75
                    3D
 Schrodinger Suite 2021-2.
 52 55  0  0  1  0            999 V2000
   -4.0860    2.6680    1.8146 C   0  0  0  0  0  0
   -2.7118    2.5715    1.1785 C   0  0  0  0  0  0
   -1.9763    3.7027    1.1786 N   0  0  0  0  0  0
   -0.7775    3.6296    0.6055 C   0  0  0  0  0  0
   -0.0281    4.7798    0.5965 N   0  0  0  0  0  0
   -0.2294    2.5551    0.0394 N   0  0  0  0  0  0
   -0.9302    1.3905    0.0307 C   0  0  0  0  0  0
   -2.2221    1.3724    0.6049 C   0  0  0  0  0  0
   -2.9869    0.1386    0.5325 C   0  0  0  0  0  0
   -2.5474   -0.9471   -0.1317 C   0  0  0  0  0  0
   -3.3732   -2.1355   -0.1290 C   0  0  0  0  0  0
   -4.2680   -2.5497    0.9001 C   0  0  0  0  0  0
   -4.9050   -3.6655    0.5760 N   0  0  0  0  0  0
   -4.4416   -3.9634   -0.6576 N   0  0  0  0  0  0
   -3.5187   -3.0564   -1.1282 C   0  0  0  0  0  0
   -1.2074   -0.9338   -0.7525 C   0  0  0  0  0  0
   -0.8208   -1.8795   -1.4344 O   0  0  0  0  0  0
   -0.4150    0.1693   -0.5500 N   0  0  0  0  0  0
    1.0080    0.1782   -1.0113 C   0  0  1  0  0  0
    1.9050   -1.0216   -0.5783 C   0  0  0  0  0  0
    2.2165   -2.0786   -1.6600 C   0  0  0  0  0  0
    2.5225   -1.4546   -3.0335 C   0  0  1  0  0  0
    2.6660   -2.4588   -4.0304 O   0  0  0  0  0  0
    3.9225   -3.1211   -4.0293 C   0  0  0  0  0  0
    3.9566   -4.1176   -5.1940 C   0  0  0  0  0  0
    4.2849   -3.4487   -6.3928 O   0  0  0  0  0  0
    1.3663   -0.5459   -3.4704 C   0  0  0  0  0  0
    1.1695    0.6155   -2.4870 C   0  0  0  0  0  0
   -4.7653   -4.7763   -1.1624 H   0  0  0  0  0  0
    1.4916    0.9747   -0.4494 H   0  0  0  0  0  0
    3.4327   -0.8543   -2.9778 H   0  0  0  0  0  0
   -4.1653    1.9749    2.6523 H   0  0  0  0  0  0
   -4.2834    3.6734    2.1892 H   0  0  0  0  0  0
   -4.8592    2.4224    1.0863 H   0  0  0  0  0  0
    0.8988    4.7827    0.1959 H   0  0  0  0  0  0
   -0.3802    5.6214    1.0285 H   0  0  0  0  0  0
   -3.9503    0.1249    1.0199 H   0  0  0  0  0  0
   -4.4699   -2.0892    1.8560 H   0  0  0  0  0  0
   -3.0652   -3.1444   -2.1047 H   0  0  0  0  0  0
    2.8684   -0.6129   -0.2690 H   0  0  0  0  0  0
    1.5057   -1.5012    0.3161 H   0  0  0  0  0  0
    3.0637   -2.6731   -1.3195 H   0  0  0  0  0  0
    1.3986   -2.7887   -1.7600 H   0  0  0  0  0  0
    4.7508   -2.4134   -4.0965 H   0  0  0  0  0  0
    4.0398   -3.6700   -3.0952 H   0  0  0  0  0  0
    4.7250   -4.8701   -5.0153 H   0  0  0  0  0  0
    3.0064   -4.6430   -5.2960 H   0  0  0  0  0  0
    3.6233   -2.7941   -6.5586 H   0  0  0  0  0  0
    1.5719   -0.1437   -4.4630 H   0  0  0  0  0  0
    0.4473   -1.1238   -3.5645 H   0  0  0  0  0  0
    0.3277    1.2347   -2.7989 H   0  0  0  0  0  0
    2.0465    1.2602   -2.5593 H   0  0  0  0  0  0
  1  2  1  0  0  0
  1 32  1  0  0  0
  1 33  1  0  0  0
  1 34  1  0  0  0
  2  8  1  0  0  0
  2  3  2  0  0  0
  3  4  1  0  0  0
  4  5  1  0  0  0
  4  6  2  0  0  0
  5 35  1  0  0  0
  5 36  1  0  0  0
  6  7  1  0  0  0
  7 18  1  0  0  0
  7  8  2  0  0  0
  8  9  1  0  0  0
  9 10  2  0  0  0
  9 37  1  0  0  0
 10 11  1  0  0  0
 10 16  1  0  0  0
 11 15  2  0  0  0
 11 12  1  0  0  0
 12 13  2  0  0  0
 12 38  1  0  0  0
 13 14  1  0  0  0
 14 29  1  0  0  0
 14 15  1  0  0  0
 15 39  1  0  0  0
 16 17  2  0  0  0
 16 18  1  0  0  0
 18 19  1  0  0  0
 19 30  1  0  0  0
 19 28  1  0  0  0
 19 20  1  0  0  0
 20 21  1  0  0  0
 20 40  1  0  0  0
 20 41  1  0  0  0
 21 22  1  0  0  0
 21 42  1  0  0  0
 21 43  1  0  0  0
 22 31  1  0  0  0
 22 23  1  0  0  0
 22 27  1  0  0  0
 23 24  1  0  0  0
 24 25  1  0  0  0
 24 44  1  0  0  0
 24 45  1  0  0  0
 25 26  1  0  0  0
 25 46  1  0  0  0
 25 47  1  0  0  0
 26 48  1  0  0  0
 27 28  1  0  0  0
 27 49  1  0  0  0
 27 50  1  0  0  0
 28 51  1  0  0  0
 28 52  1  0  0  0
M  END
$$$$
76
                    3D
 Schrodinger Suite 2021-2.
 49 51  0  0  1  0            999 V2000
   -0.8172    6.0061   -0.4472 C   0  0  0  0  0  0
   -0.1474    4.8333   -0.8856 O   0  0  0  0  0  0
   -0.7333    3.6142   -0.6201 C   0  0  0  0  0  0
   -1.9676    3.4542    0.0579 C   0  0  0  0  0  0
   -2.4921    2.1676    0.2847 C   0  0  0  0  0  0
   -1.7926    1.0294   -0.1566 C   0  0  0  0  0  0
   -0.5604    1.1706   -0.8260 C   0  0  0  0  0  0
    0.1818   -0.0721   -1.3003 C   0  0  0  0  0  0
    1.6358    0.0494   -1.2661 N   0  0  0  0  0  0
    2.3888   -0.0402   -0.1591 C   0  0  0  0  0  0
    1.9252   -0.2632    0.9599 O   0  0  0  0  0  0
    3.8377    0.1531   -0.3599 C   0  0  0  0  0  0
    4.5922    0.4199   -1.4712 C   0  0  0  0  0  0
    5.9554    0.4916   -1.0577 C   0  0  0  0  0  0
    7.3600    0.8130   -2.0605 S   0  0  0  0  0  0
    6.9037    1.5649   -3.2400 O   0  0  0  0  0  0
    8.4173    1.3597   -1.1954 O   0  0  0  0  0  0
    7.8575   -0.7693   -2.5886 N   0  0  0  0  0  0
    7.0927   -1.4641   -3.6452 C   0  0  0  0  0  0
    6.1337   -2.5144   -3.0562 C   0  0  0  0  0  0
    6.8773   -3.4934   -2.1412 C   0  0  0  0  0  0
    7.6157   -2.7168   -1.0458 C   0  0  0  0  0  0
    8.5644   -1.6666   -1.6511 C   0  0  0  0  0  0
    6.0052    0.2961    0.2952 C   0  0  0  0  0  0
    4.7081    0.0817    0.7099 N   0  0  0  0  0  0
   -0.0443    2.4651   -1.0591 C   0  0  0  0  0  0
    4.4276   -0.0969    1.6640 H   0  0  0  0  0  0
   -0.2286    6.8806   -0.7236 H   0  0  0  0  0  0
   -1.7960    6.1053   -0.9181 H   0  0  0  0  0  0
   -0.9343    6.0171    0.6373 H   0  0  0  0  0  0
   -2.5326    4.3028    0.4125 H   0  0  0  0  0  0
   -3.4342    2.0537    0.8006 H   0  0  0  0  0  0
   -2.2044    0.0471    0.0245 H   0  0  0  0  0  0
   -0.1269   -0.9385   -0.7127 H   0  0  0  0  0  0
   -0.1173   -0.2755   -2.3286 H   0  0  0  0  0  0
    2.1006    0.2350   -2.1428 H   0  0  0  0  0  0
    4.2137    0.5425   -2.4754 H   0  0  0  0  0  0
    6.5421   -0.7447   -4.2510 H   0  0  0  0  0  0
    7.7999   -1.9529   -4.3164 H   0  0  0  0  0  0
    5.3379   -2.0249   -2.4966 H   0  0  0  0  0  0
    5.6459   -3.0609   -3.8636 H   0  0  0  0  0  0
    6.1769   -4.2001   -1.6955 H   0  0  0  0  0  0
    7.5889   -4.0794   -2.7241 H   0  0  0  0  0  0
    6.8921   -2.2353   -0.3893 H   0  0  0  0  0  0
    8.1818   -3.4075   -0.4203 H   0  0  0  0  0  0
    9.3653   -2.1693   -2.1945 H   0  0  0  0  0  0
    9.0449   -1.0892   -0.8617 H   0  0  0  0  0  0
    6.8314    0.2829    0.9907 H   0  0  0  0  0  0
    0.8938    2.5878   -1.5804 H   0  0  0  0  0  0
  1  2  1  0  0  0
  1 28  1  0  0  0
  1 29  1  0  0  0
  1 30  1  0  0  0
  2  3  1  0  0  0
  3 26  1  0  0  0
  3  4  2  0  0  0
  4  5  1  0  0  0
  4 31  1  0  0  0
  5  6  2  0  0  0
  5 32  1  0  0  0
  6  7  1  0  0  0
  6 33  1  0  0  0
  7  8  1  0  0  0
  7 26  2  0  0  0
  8  9  1  0  0  0
  8 34  1  0  0  0
  8 35  1  0  0  0
  9 10  1  0  0  0
  9 36  1  0  0  0
 10 11  2  0  0  0
 10 12  1  0  0  0
 12 25  1  0  0  0
 12 13  2  0  0  0
 13 14  1  0  0  0
 13 37  1  0  0  0
 14 15  1  0  0  0
 14 24  2  0  0  0
 15 16  2  0  0  0
 15 17  2  0  0  0
 15 18  1  0  0  0
 18 23  1  0  0  0
 18 19  1  0  0  0
 19 20  1  0  0  0
 19 38  1  0  0  0
 19 39  1  0  0  0
 20 21  1  0  0  0
 20 40  1  0  0  0
 20 41  1  0  0  0
 21 22  1  0  0  0
 21 42  1  0  0  0
 21 43  1  0  0  0
 22 23  1  0  0  0
 22 44  1  0  0  0
 22 45  1  0  0  0
 23 46  1  0  0  0
 23 47  1  0  0  0
 24 25  1  0  0  0
 24 48  1  0  0  0
 25 27  1  0  0  0
 26 49  1  0  0  0
M  END
$$$$
77
                    3D
 Schrodinger Suite 2021-2.
 45 47  0  0  1  0            999 V2000
   -1.4561    2.9657    0.5519 C   0  0  0  0  0  0
   -0.5794    1.8796    0.7958 O   0  0  0  0  0  0
   -0.6019    0.9217   -0.2490 C   0  0  0  0  0  0
    0.3848   -0.2126    0.0682 C   0  0  0  0  0  0
    1.8572    0.2351    0.1676 C   0  0  0  0  0  0
    2.3183    0.9369   -1.0251 N   0  0  0  0  0  0
    2.5665    0.3643   -2.2120 C   0  0  0  0  0  0
    2.4703   -0.8397   -2.4510 O   0  0  0  0  0  0
    2.9603    1.3484   -3.3214 C   0  0  0  0  0  0
    3.8914    2.1343   -3.1477 O   0  0  0  0  0  0
    2.1842    1.2671   -4.4146 N   0  0  0  0  0  0
    2.2393    2.0370   -5.5309 C   0  0  0  0  0  0
    3.3449    2.5126   -6.1790 C   0  0  0  0  0  0
    2.8017    3.1367   -7.3075 C   0  0  0  0  0  0
    1.4826    3.0762   -7.3899 N   0  0  0  0  0  0
    1.1174    2.3852   -6.2751 N   0  0  0  0  0  0
   -0.2499    2.1096   -6.0271 C   0  0  0  0  0  0
   -1.0970    1.7150   -7.0868 C   0  0  0  0  0  0
   -2.4572    1.4420   -6.8439 C   0  0  0  0  0  0
   -2.9803    1.5670   -5.5429 C   0  0  0  0  0  0
   -2.1432    1.9672   -4.4836 C   0  0  0  0  0  0
   -2.7872    2.1300   -2.8915 Cl  0  0  0  0  0  0
   -0.7819    2.2383   -4.7241 C   0  0  0  0  0  0
    3.7363    3.7477   -8.2880 C   0  0  0  0  0  0
    5.3822    3.2725   -7.6350 S   0  0  0  0  0  0
    4.8323    2.5022   -6.0630 C   0  0  0  0  0  0
   -1.4082    3.6694    1.3829 H   0  0  0  0  0  0
   -1.1780    3.4997   -0.3578 H   0  0  0  0  0  0
   -2.4883    2.6262    0.4565 H   0  0  0  0  0  0
   -1.6081    0.5117   -0.3474 H   0  0  0  0  0  0
   -0.3528    1.3914   -1.2018 H   0  0  0  0  0  0
    0.0933   -0.6895    1.0046 H   0  0  0  0  0  0
    0.2923   -0.9828   -0.6981 H   0  0  0  0  0  0
    1.9816    0.9049    1.0187 H   0  0  0  0  0  0
    2.4996   -0.6258    0.3585 H   0  0  0  0  0  0
    2.4364    1.9372   -0.9501 H   0  0  0  0  0  0
    1.3985    0.6355   -4.3543 H   0  0  0  0  0  0
   -0.7072    1.6131   -8.0893 H   0  0  0  0  0  0
   -3.0996    1.1370   -7.6566 H   0  0  0  0  0  0
   -4.0242    1.3585   -5.3598 H   0  0  0  0  0  0
   -0.1532    2.5549   -3.9048 H   0  0  0  0  0  0
    3.5931    3.3520   -9.2936 H   0  0  0  0  0  0
    3.6363    4.8329   -8.3140 H   0  0  0  0  0  0
    5.1896    3.1026   -5.2268 H   0  0  0  0  0  0
    5.2425    1.4969   -5.9685 H   0  0  0  0  0  0
  1  2  1  0  0  0
  1 27  1  0  0  0
  1 28  1  0  0  0
  1 29  1  0  0  0
  2  3  1  0  0  0
  3  4  1  0  0  0
  3 30  1  0  0  0
  3 31  1  0  0  0
  4  5  1  0  0  0
  4 32  1  0  0  0
  4 33  1  0  0  0
  5  6  1  0  0  0
  5 34  1  0  0  0
  5 35  1  0  0  0
  6  7  1  0  0  0
  6 36  1  0  0  0
  7  8  2  0  0  0
  7  9  1  0  0  0
  9 10  2  0  0  0
  9 11  1  0  0  0
 11 12  1  0  0  0
 11 37  1  0  0  0
 12 16  1  0  0  0
 12 13  2  0  0  0
 13 26  1  0  0  0
 13 14  1  0  0  0
 14 15  2  0  0  0
 14 24  1  0  0  0
 15 16  1  0  0  0
 16 17  1  0  0  0
 17 23  1  0  0  0
 17 18  2  0  0  0
 18 19  1  0  0  0
 18 38  1  0  0  0
 19 20  2  0  0  0
 19 39  1  0  0  0
 20 21  1  0  0  0
 20 40  1  0  0  0
 21 22  1  0  0  0
 21 23  2  0  0  0
 23 41  1  0  0  0
 24 25  1  0  0  0
 24 42  1  0  0  0
 24 43  1  0  0  0
 25 26  1  0  0  0
 26 44  1  0  0  0
 26 45  1  0  0  0
M  END
$$$$
78
                    3D
 Schrodinger Suite 2021-2.
 49 52  0  0  1  0            999 V2000
   -2.0818    0.9295    0.5573 C   0  0  0  0  0  0
   -0.6897    1.2845    0.0039 C   0  0  1  0  0  0
    0.0667    0.0755    0.0268 O   0  0  0  0  0  0
    1.4496    0.1010    0.0301 C   0  0  0  0  0  0
    2.2199    1.2897    0.0590 C   0  0  0  0  0  0
    3.6307    1.2581    0.0543 C   0  0  0  0  0  0
    4.4173    2.5084    0.0666 C   0  0  0  0  0  0
    3.9207    3.8427    0.0851 C   0  0  0  0  0  0
    4.9003    4.7331    0.0818 N   0  0  0  0  0  0
    6.0364    3.9975    0.0631 N   0  0  0  0  0  0
    7.3246    4.6666    0.0478 C   0  0  0  0  0  0
    7.7547    5.0818   -1.3687 C   0  0  0  0  0  0
    7.9131    3.9510   -2.2012 O   0  0  0  0  0  0
    5.7767    2.6423    0.0549 C   0  0  0  0  0  0
    4.2708    0.0008    0.0318 C   0  0  0  0  0  0
    3.5448   -1.2060    0.0098 C   0  0  0  0  0  0
    4.2088   -2.3851   -0.0101 N   0  0  0  0  0  0
    3.5037   -3.5345   -0.0342 C   0  0  0  0  0  0
    2.0984   -3.5747   -0.0414 C   0  0  0  0  0  0
    1.3978   -2.3555   -0.0204 C   0  0  0  0  0  0
    2.1241   -1.1424    0.0068 C   0  0  0  0  0  0
   -0.7054    1.8898   -1.4282 C   0  0  1  0  0  0
   -1.3690    0.9789   -2.4844 C   0  0  0  0  0  0
   -2.6022    1.6527   -2.8417 N   0  0  0  0  0  0
   -2.6999    2.8802   -2.3356 C   0  0  0  0  0  0
   -3.6455    3.6485   -2.4932 O   0  0  0  0  0  0
   -1.4659    3.2264   -1.5199 C   0  0  0  0  0  0
   -0.2675    2.0048    0.7048 H   0  0  0  0  0  0
    0.3225    2.0703   -1.7412 H   0  0  0  0  0  0
   -2.7314    1.8028    0.6081 H   0  0  0  0  0  0
   -2.5835    0.1762   -0.0494 H   0  0  0  0  0  0
   -2.0005    0.5286    1.5678 H   0  0  0  0  0  0
    1.7385    2.2533    0.0771 H   0  0  0  0  0  0
    2.9000    4.1952    0.0978 H   0  0  0  0  0  0
    7.2686    5.5442    0.6933 H   0  0  0  0  0  0
    8.0677    4.0019    0.4904 H   0  0  0  0  0  0
    7.0183    5.7523   -1.8130 H   0  0  0  0  0  0
    8.7001    5.6231   -1.3305 H   0  0  0  0  0  0
    8.1818    4.2441   -3.0585 H   0  0  0  0  0  0
    6.5702    1.9101    0.0355 H   0  0  0  0  0  0
    5.3495   -0.0513    0.0289 H   0  0  0  0  0  0
    4.0772   -4.4494   -0.0481 H   0  0  0  0  0  0
    1.5714   -4.5173   -0.0617 H   0  0  0  0  0  0
    0.3177   -2.3652   -0.0253 H   0  0  0  0  0  0
   -0.7432    0.8984   -3.3741 H   0  0  0  0  0  0
   -1.5606   -0.0325   -2.1255 H   0  0  0  0  0  0
   -3.3114    1.2208   -3.4167 H   0  0  0  0  0  0
   -1.7341    3.6370   -0.5460 H   0  0  0  0  0  0
   -0.8824    3.9763   -2.0553 H   0  0  0  0  0  0
  1  2  1  0  0  0
  1 30  1  0  0  0
  1 31  1  0  0  0
  1 32  1  0  0  0
  2 28  1  0  0  0
  2  3  1  0  0  0
  2 22  1  0  0  0
  3  4  1  0  0  0
  4 21  1  0  0  0
  4  5  2  0  0  0
  5  6  1  0  0  0
  5 33  1  0  0  0
  6  7  1  0  0  0
  6 15  2  0  0  0
  7 14  2  0  0  0
  7  8  1  0  0  0
  8  9  2  0  0  0
  8 34  1  0  0  0
  9 10  1  0  0  0
 10 11  1  0  0  0
 10 14  1  0  0  0
 11 12  1  0  0  0
 11 35  1  0  0  0
 11 36  1  0  0  0
 12 13  1  0  0  0
 12 37  1  0  0  0
 12 38  1  0  0  0
 13 39  1  0  0  0
 14 40  1  0  0  0
 15 16  1  0  0  0
 15 41  1  0  0  0
 16 21  2  0  0  0
 16 17  1  0  0  0
 17 18  2  0  0  0
 18 19  1  0  0  0
 18 42  1  0  0  0
 19 20  2  0  0  0
 19 43  1  0  0  0
 20 21  1  0  0  0
 20 44  1  0  0  0
 22 29  1  0  0  0
 22 27  1  0  0  0
 22 23  1  0  0  0
 23 24  1  0  0  0
 23 45  1  0  0  0
 23 46  1  0  0  0
 24 25  1  0  0  0
 24 47  1  0  0  0
 25 26  2  0  0  0
 25 27  1  0  0  0
 27 48  1  0  0  0
 27 49  1  0  0  0
M  END
$$$$
79
                    3D
 Schrodinger Suite 2021-2.
 50 53  0  0  1  0            999 V2000
   -1.8358    4.5578   -1.7260 C   0  0  0  0  0  0
   -1.4828    3.5875   -0.6181 C   0  0  0  0  0  0
   -1.7125    3.9267    0.7291 C   0  0  0  0  0  0
   -1.3674    3.0231    1.7514 C   0  0  0  0  0  0
   -0.7873    1.7746    1.4405 C   0  0  0  0  0  0
   -0.4146    0.8337    2.5731 C   0  0  0  0  0  0
   -0.5574    1.4290    0.0844 C   0  0  0  0  0  0
    0.0894    0.1072   -0.3103 C   0  0  0  0  0  0
    1.5327    0.1433   -0.1367 N   0  0  0  0  0  0
    2.1443   -0.8239    0.6078 N   0  0  0  0  0  0
    3.4265   -0.5980    0.6214 N   0  0  0  0  0  0
    3.6657    0.5325   -0.1422 C   0  0  0  0  0  0
    4.8299    1.2542   -0.4951 C   0  0  0  0  0  0
    6.0662    0.8713   -0.0644 O   0  0  0  0  0  0
    4.6958    2.3516   -1.2795 N   0  0  0  0  0  0
    3.4747    2.7300   -1.7030 C   0  0  0  0  0  0
    3.3984    3.9686   -2.5797 C   0  0  0  0  0  0
    2.3749    4.6551   -2.5962 O   0  0  0  0  0  0
    4.4811    4.2143   -3.3371 N   0  0  0  0  0  0
    4.6373    5.3426   -4.2485 C   0  0  0  0  0  0
    5.4114    6.5000   -3.5944 C   0  0  2  0  0  0
    4.7143    7.1575   -2.4015 C   0  0  0  0  0  0
    5.3230    8.5401   -2.4163 C   0  0  0  0  0  0
    5.4065    8.8191   -3.9132 C   0  0  0  0  0  0
    5.6107    7.5528   -4.5352 O   0  0  0  0  0  0
    2.3030    2.1234   -1.4588 N   0  0  0  0  0  0
    2.4546    1.0309   -0.6580 C   0  0  0  0  0  0
   -0.9160    2.3381   -0.9343 C   0  0  0  0  0  0
   -1.9446    5.5725   -1.3419 H   0  0  0  0  0  0
   -1.0547    4.5678   -2.4870 H   0  0  0  0  0  0
   -2.7736    4.2657   -2.1982 H   0  0  0  0  0  0
   -2.1494    4.8812    0.9842 H   0  0  0  0  0  0
   -1.5451    3.2986    2.7805 H   0  0  0  0  0  0
   -0.9243   -0.1234    2.4633 H   0  0  0  0  0  0
    0.6609    0.6582    2.5863 H   0  0  0  0  0  0
   -0.6944    1.2488    3.5418 H   0  0  0  0  0  0
   -0.3368   -0.7135    0.2678 H   0  0  0  0  0  0
   -0.1193   -0.1141   -1.3575 H   0  0  0  0  0  0
    6.7536    1.4436   -0.3685 H   0  0  0  0  0  0
    5.2614    3.5782   -3.2577 H   0  0  0  0  0  0
    5.1837    4.9894   -5.1232 H   0  0  0  0  0  0
    3.6694    5.6895   -4.6142 H   0  0  0  0  0  0
    6.3989    6.1554   -3.2833 H   0  0  0  0  0  0
    3.6387    7.2250   -2.5717 H   0  0  0  0  0  0
    4.8803    6.6260   -1.4640 H   0  0  0  0  0  0
    4.7296    9.2782   -1.8764 H   0  0  0  0  0  0
    6.3223    8.5151   -1.9796 H   0  0  0  0  0  0
    4.4638    9.2322   -4.2742 H   0  0  0  0  0  0
    6.2016    9.5220   -4.1627 H   0  0  0  0  0  0
   -0.7357    2.0842   -1.9689 H   0  0  0  0  0  0
  1  2  1  0  0  0
  1 29  1  0  0  0
  1 30  1  0  0  0
  1 31  1  0  0  0
  2 28  1  0  0  0
  2  3  2  0  0  0
  3  4  1  0  0  0
  3 32  1  0  0  0
  4  5  2  0  0  0
  4 33  1  0  0  0
  5  6  1  0  0  0
  5  7  1  0  0  0
  6 34  1  0  0  0
  6 35  1  0  0  0
  6 36  1  0  0  0
  7  8  1  0  0  0
  7 28  2  0  0  0
  8  9  1  0  0  0
  8 37  1  0  0  0
  8 38  1  0  0  0
  9 27  1  0  0  0
  9 10  1  0  0  0
 10 11  2  0  0  0
 11 12  1  0  0  0
 12 27  2  0  0  0
 12 13  1  0  0  0
 13 14  1  0  0  0
 13 15  2  0  0  0
 14 39  1  0  0  0
 15 16  1  0  0  0
 16 17  1  0  0  0
 16 26  2  0  0  0
 17 18  2  0  0  0
 17 19  1  0  0  0
 19 20  1  0  0  0
 19 40  1  0  0  0
 20 21  1  0  0  0
 20 41  1  0  0  0
 20 42  1  0  0  0
 21 25  1  0  0  0
 21 22  1  0  0  0
 21 43  1  0  0  0
 22 23  1  0  0  0
 22 44  1  0  0  0
 22 45  1  0  0  0
 23 24  1  0  0  0
 23 46  1  0  0  0
 23 47  1  0  0  0
 24 25  1  0  0  0
 24 48  1  0  0  0
 24 49  1  0  0  0
 26 27  1  0  0  0
 28 50  1  0  0  0
M  END
$$$$
80
                    3D
 Schrodinger Suite 2021-2.
 54 57  0  0  1  0            999 V2000
   -5.2233   -3.6625    0.5178 N   0  0  0  0  0  0
   -4.7710   -2.7567   -0.3524 C   0  0  0  0  0  0
   -4.8095   -2.9398   -1.5670 O   0  0  0  0  0  0
   -4.2227   -1.4476    0.2249 C   0  0  0  0  0  0
   -2.6788   -1.3898    0.2921 C   0  0  1  0  0  0
   -2.0018   -1.3832   -1.0985 C   0  0  0  0  0  0
   -0.4704   -1.2981   -0.9899 C   0  0  0  0  0  0
   -0.0301   -0.0670   -0.1759 C   0  0  2  0  0  0
    1.4866    0.0515   -0.0912 C   0  0  0  0  0  0
    2.2540   -0.9395    0.5579 C   0  0  0  0  0  0
    3.6549   -0.8215    0.6313 C   0  0  0  0  0  0
    4.3140    0.2906    0.0562 C   0  0  0  0  0  0
    5.7408    0.3951    0.1266 N   0  0  0  0  0  0
    6.4185    0.9449   -1.0553 C   0  0  0  0  0  0
    7.7660    0.3119   -1.3781 C   0  0  0  0  0  0
    8.7388    0.8030   -0.4829 O   0  0  0  0  0  0
    8.8250    0.0843    0.6748 C   0  0  0  0  0  0
   10.0764   -0.3531    0.9313 N   0  0  0  0  0  0
   10.2464   -1.1143    2.0089 C   0  0  0  0  0  0
    9.3009   -1.4934    2.8651 N   0  0  0  0  0  0
    8.0468   -1.0484    2.6393 C   0  0  0  0  0  0
    7.1012   -1.4845    3.5702 N   0  0  0  0  0  0
    7.7243   -0.2151    1.5261 C   0  0  0  0  0  0
    6.3304    0.3604    1.3513 C   0  0  0  0  0  0
    5.7216    0.7293    2.3588 O   0  0  0  0  0  0
    3.5414    1.2801   -0.5959 C   0  0  0  0  0  0
    2.1402    1.1610   -0.6669 C   0  0  0  0  0  0
   -0.6915   -0.0778    1.2152 C   0  0  0  0  0  0
   -2.2224   -0.1594    1.1037 C   0  0  0  0  0  0
   -2.3349   -2.2779    0.8254 H   0  0  0  0  0  0
   -0.3958    0.8165   -0.7015 H   0  0  0  0  0  0
   -5.6036   -4.5347    0.1796 H   0  0  0  0  0  0
   -5.1831   -3.4749    1.5089 H   0  0  0  0  0  0
   -4.5997   -0.6183   -0.3751 H   0  0  0  0  0  0
   -4.6397   -1.3073    1.2234 H   0  0  0  0  0  0
   -2.2583   -2.2832   -1.6565 H   0  0  0  0  0  0
   -2.3731   -0.5415   -1.6843 H   0  0  0  0  0  0
   -0.0930   -2.2107   -0.5270 H   0  0  0  0  0  0
   -0.0369   -1.2568   -1.9896 H   0  0  0  0  0  0
    1.7718   -1.7975    1.0023 H   0  0  0  0  0  0
    4.2229   -1.5942    1.1288 H   0  0  0  0  0  0
    5.7870    0.7916   -1.9315 H   0  0  0  0  0  0
    6.5270    2.0248   -0.9428 H   0  0  0  0  0  0
    7.7120   -0.7790   -1.3808 H   0  0  0  0  0  0
    8.0723    0.6084   -2.3814 H   0  0  0  0  0  0
   11.2483   -1.4678    2.2020 H   0  0  0  0  0  0
    6.1497   -1.1460    3.5445 H   0  0  0  0  0  0
    7.3739   -2.0249    4.3785 H   0  0  0  0  0  0
    4.0127    2.1456   -1.0375 H   0  0  0  0  0  0
    1.5695    1.9303   -1.1662 H   0  0  0  0  0  0
   -0.3289   -0.9233    1.8009 H   0  0  0  0  0  0
   -0.4139    0.8219    1.7654 H   0  0  0  0  0  0
   -2.6008    0.7505    0.6359 H   0  0  0  0  0  0
   -2.6538   -0.1914    2.1047 H   0  0  0  0  0  0
  1  2  1  0  0  0
  1 32  1  0  0  0
  1 33  1  0  0  0
  2  3  2  0  0  0
  2  4  1  0  0  0
  4  5  1  0  0  0
  4 34  1  0  0  0
  4 35  1  0  0  0
  5 30  1  0  0  0
  5 29  1  0  0  0
  5  6  1  0  0  0
  6  7  1  0  0  0
  6 36  1  0  0  0
  6 37  1  0  0  0
  7  8  1  0  0  0
  7 38  1  0  0  0
  7 39  1  0  0  0
  8 31  1  0  0  0
  8  9  1  0  0  0
  8 28  1  0  0  0
  9 27  1  0  0  0
  9 10  2  0  0  0
 10 11  1  0  0  0
 10 40  1  0  0  0
 11 12  2  0  0  0
 11 41  1  0  0  0
 12 13  1  0  0  0
 12 26  1  0  0  0
 13 24  1  0  0  0
 13 14  1  0  0  0
 14 15  1  0  0  0
 14 42  1  0  0  0
 14 43  1  0  0  0
 15 16  1  0  0  0
 15 44  1  0  0  0
 15 45  1  0  0  0
 16 17  1  0  0  0
 17 23  2  0  0  0
 17 18  1  0  0  0
 18 19  2  0  0  0
 19 20  1  0  0  0
 19 46  1  0  0  0
 20 21  2  0  0  0
 21 22  1  0  0  0
 21 23  1  0  0  0
 22 47  1  0  0  0
 22 48  1  0  0  0
 23 24  1  0  0  0
 24 25  2  0  0  0
 26 27  2  0  0  0
 26 49  1  0  0  0
 27 50  1  0  0  0
 28 29  1  0  0  0
 28 51  1  0  0  0
 28 52  1  0  0  0
 29 53  1  0  0  0
 29 54  1  0  0  0
M  END
$$$$
81
                    3D
 Schrodinger Suite 2021-2.
 48 52  0  0  1  0            999 V2000
   -0.3123    2.2252    0.0327 O   0  0  0  0  0  0
   -0.7655    1.0808    0.0093 C   0  0  0  0  0  0
   -0.0212   -0.0452    0.0092 N   0  0  0  0  0  0
    1.4382   -0.1310    0.0341 C   0  0  0  0  0  0
    1.9883   -0.0350    1.4672 C   0  0  0  0  0  0
    2.1456   -1.3263    2.0157 O   0  0  0  0  0  0
   -0.8729   -1.1503    0.0131 C   0  0  0  0  0  0
   -0.5937   -2.5233    0.0336 C   0  0  0  0  0  0
   -1.5983   -3.4253    0.0365 N   0  0  0  0  0  0
   -2.8878   -2.9926    0.0231 C   0  0  0  0  0  0
   -3.9323   -3.9410    0.0266 C   0  0  0  0  0  0
   -5.2723   -3.5156    0.0150 C   0  0  0  0  0  0
   -5.5424   -2.1334    0.0003 C   0  0  0  0  0  0
   -6.9139   -1.5908   -0.0155 C   0  0  0  0  0  0
   -7.2961   -0.2170   -0.0327 C   0  0  0  0  0  0
   -8.6129   -0.0704   -0.0453 N   0  0  0  0  0  0
   -9.0835   -1.3359   -0.0371 N   0  0  0  0  0  0
   -8.0885   -2.2876   -0.0194 C   0  0  0  0  0  0
   -4.5506   -1.2186   -0.0028 N   0  0  0  0  0  0
   -3.2557   -1.6054    0.0065 C   0  0  0  0  0  0
   -2.1729   -0.6866    0.0012 C   0  0  0  0  0  0
   -2.0808    0.7331   -0.0098 N   0  0  0  0  0  0
   -3.2145    1.6802   -0.0243 C   0  0  0  0  0  0
   -3.2155    2.5923   -1.2655 C   0  0  0  0  0  0
   -4.4115    3.5570   -1.2090 C   0  0  0  0  0  0
   -4.3687    4.3161   -0.0042 O   0  0  0  0  0  0
   -4.4716    3.5132    1.1682 C   0  0  0  0  0  0
   -3.2812    2.5430    1.2493 C   0  0  0  0  0  0
  -10.0745   -1.5315   -0.0441 H   0  0  0  0  0  0
    1.7911   -1.0307   -0.4718 H   0  0  0  0  0  0
    1.8330    0.7017   -0.5502 H   0  0  0  0  0  0
    2.9735    0.4321    1.4502 H   0  0  0  0  0  0
    1.3572    0.5792    2.1108 H   0  0  0  0  0  0
    2.5210   -1.2422    2.8791 H   0  0  0  0  0  0
    0.4167   -2.9043    0.0494 H   0  0  0  0  0  0
   -3.7061   -4.9975    0.0379 H   0  0  0  0  0  0
   -6.0706   -4.2426    0.0170 H   0  0  0  0  0  0
   -6.6712    0.6642   -0.0371 H   0  0  0  0  0  0
   -8.3007   -3.3466   -0.0123 H   0  0  0  0  0  0
   -4.1515    1.1409   -0.0650 H   0  0  0  0  0  0
   -2.2979    3.1772   -1.3244 H   0  0  0  0  0  0
   -3.2640    1.9918   -2.1745 H   0  0  0  0  0  0
   -4.3809    4.2408   -2.0573 H   0  0  0  0  0  0
   -5.3549    3.0123   -1.2742 H   0  0  0  0  0  0
   -4.4828    4.1656    2.0414 H   0  0  0  0  0  0
   -5.4175    2.9692    1.1663 H   0  0  0  0  0  0
   -3.3779    1.9080    2.1306 H   0  0  0  0  0  0
   -2.3660    3.1209    1.3779 H   0  0  0  0  0  0
  1  2  2  0  0  0
  2 22  1  0  0  0
  2  3  1  0  0  0
  3  4  1  0  0  0
  3  7  1  0  0  0
  4  5  1  0  0  0
  4 30  1  0  0  0
  4 31  1  0  0  0
  5  6  1  0  0  0
  5 32  1  0  0  0
  5 33  1  0  0  0
  6 34  1  0  0  0
  7 21  2  0  0  0
  7  8  1  0  0  0
  8  9  2  0  0  0
  8 35  1  0  0  0
  9 10  1  0  0  0
 10 20  1  0  0  0
 10 11  2  0  0  0
 11 12  1  0  0  0
 11 36  1  0  0  0
 12 13  2  0  0  0
 12 37  1  0  0  0
 13 14  1  0  0  0
 13 19  1  0  0  0
 14 18  2  0  0  0
 14 15  1  0  0  0
 15 16  2  0  0  0
 15 38  1  0  0  0
 16 17  1  0  0  0
 17 29  1  0  0  0
 17 18  1  0  0  0
 18 39  1  0  0  0
 19 20  2  0  0  0
 20 21  1  0  0  0
 21 22  1  0  0  0
 22 23  1  0  0  0
 23 28  1  0  0  0
 23 24  1  0  0  0
 23 40  1  0  0  0
 24 25  1  0  0  0
 24 41  1  0  0  0
 24 42  1  0  0  0
 25 26  1  0  0  0
 25 43  1  0  0  0
 25 44  1  0  0  0
 26 27  1  0  0  0
 27 28  1  0  0  0
 27 45  1  0  0  0
 27 46  1  0  0  0
 28 47  1  0  0  0
 28 48  1  0  0  0
M  END
$$$$
82
                    3D
 Schrodinger Suite 2021-2.
 57 60  0  0  1  0            999 V2000
   -2.2499    1.3893   -0.3799 C   0  0  0  0  0  0
   -0.7183    1.3792   -0.3459 C   0  0  0  0  0  0
   -0.1410   -0.0449   -0.2447 C   0  0  0  0  0  0
    1.3383   -0.0313   -0.1975 N   0  0  0  0  0  0
    2.0017   -0.0840   -1.4029 C   0  0  0  0  0  0
    1.4512   -0.1483   -2.5033 O   0  0  0  0  0  0
    3.4750   -0.0423   -1.2886 C   0  0  0  0  0  0
    4.4796   -0.0612   -2.2542 N   0  0  0  0  0  0
    5.6125    0.0264   -1.5439 C   0  0  0  0  0  0
    6.9993   -0.0093   -2.1349 C   0  0  0  0  0  0
    7.3173   -1.4190   -2.6894 C   0  0  0  0  0  0
    8.7354   -1.4713   -3.3049 C   0  0  0  0  0  0
    9.4319   -0.0892   -3.2205 C   0  0  0  0  0  0
   10.8573   -0.1294   -3.8172 C   0  0  0  0  0  0
   10.8531   -0.4867   -5.1846 O   0  0  0  0  0  0
    9.5037    0.3073   -1.7264 C   0  0  0  0  0  0
    8.0950    0.3397   -1.0906 C   0  0  0  0  0  0
    8.5383    0.9561   -3.9342 C   0  0  0  0  0  0
    7.1330    1.0160   -3.2903 C   0  0  0  0  0  0
    5.3808    0.0670   -0.2167 N   0  0  0  0  0  0
    4.0093    0.0308   -0.0492 C   0  0  0  0  0  0
    3.3166    0.0660    1.1114 N   0  0  0  0  0  0
    4.0361    0.1465    2.3912 C   0  0  0  0  0  0
    4.3009    1.6064    2.7950 C   0  0  0  0  0  0
    5.0761    1.7162    4.1118 C   0  0  0  0  0  0
    1.9447    0.0673    1.0490 C   0  0  0  0  0  0
    1.2768    0.1632    2.0820 O   0  0  0  0  0  0
    6.0762    0.1147    0.5140 H   0  0  0  0  0  0
   -2.6304    2.4080   -0.4576 H   0  0  0  0  0  0
   -2.6275    0.8273   -1.2345 H   0  0  0  0  0  0
   -2.6669    0.9461    0.5247 H   0  0  0  0  0  0
   -0.3393    1.8678   -1.2442 H   0  0  0  0  0  0
   -0.3758    1.9793    0.4977 H   0  0  0  0  0  0
   -0.5595   -0.5498    0.6278 H   0  0  0  0  0  0
   -0.5045   -0.6450   -1.0811 H   0  0  0  0  0  0
    7.2323   -2.1630   -1.8962 H   0  0  0  0  0  0
    6.5828   -1.6978   -3.4464 H   0  0  0  0  0  0
    9.3330   -2.2238   -2.7888 H   0  0  0  0  0  0
    8.6653   -1.8016   -4.3419 H   0  0  0  0  0  0
   11.3404    0.8432   -3.7174 H   0  0  0  0  0  0
   11.4762   -0.8466   -3.2771 H   0  0  0  0  0  0
   11.7456   -0.4991   -5.4948 H   0  0  0  0  0  0
   10.1356   -0.3943   -1.1802 H   0  0  0  0  0  0
    9.9761    1.2850   -1.6198 H   0  0  0  0  0  0
    7.9110    1.3271   -0.6644 H   0  0  0  0  0  0
    8.0649   -0.3635   -0.2570 H   0  0  0  0  0  0
    9.0040    1.9417   -3.8946 H   0  0  0  0  0  0
    8.4395    0.7108   -4.9925 H   0  0  0  0  0  0
    6.3814    0.8241   -4.0573 H   0  0  0  0  0  0
    6.9383    2.0239   -2.9216 H   0  0  0  0  0  0
    3.4789   -0.3617    3.1799 H   0  0  0  0  0  0
    4.9796   -0.3969    2.3255 H   0  0  0  0  0  0
    4.8613    2.1109    2.0070 H   0  0  0  0  0  0
    3.3550    2.1411    2.8904 H   0  0  0  0  0  0
    5.2529    2.7597    4.3728 H   0  0  0  0  0  0
    4.5246    1.2563    4.9323 H   0  0  0  0  0  0
    6.0454    1.2220    4.0401 H   0  0  0  0  0  0
  1  2  1  0  0  0
  1 29  1  0  0  0
  1 30  1  0  0  0
  1 31  1  0  0  0
  2  3  1  0  0  0
  2 32  1  0  0  0
  2 33  1  0  0  0
  3  4  1  0  0  0
  3 34  1  0  0  0
  3 35  1  0  0  0
  4 26  1  0  0  0
  4  5  1  0  0  0
  5  6  2  0  0  0
  5  7  1  0  0  0
  7 21  2  0  0  0
  7  8  1  0  0  0
  8  9  2  0  0  0
  9 10  1  0  0  0
  9 20  1  0  0  0
 10 17  1  0  0  0
 10 19  1  0  0  0
 10 11  1  0  0  0
 11 12  1  0  0  0
 11 36  1  0  0  0
 11 37  1  0  0  0
 12 13  1  0  0  0
 12 38  1  0  0  0
 12 39  1  0  0  0
 13 14  1  0  0  0
 13 16  1  0  0  0
 13 18  1  0  0  0
 14 15  1  0  0  0
 14 40  1  0  0  0
 14 41  1  0  0  0
 15 42  1  0  0  0
 16 17  1  0  0  0
 16 43  1  0  0  0
 16 44  1  0  0  0
 17 45  1  0  0  0
 17 46  1  0  0  0
 18 19  1  0  0  0
 18 47  1  0  0  0
 18 48  1  0  0  0
 19 49  1  0  0  0
 19 50  1  0  0  0
 20 28  1  0  0  0
 20 21  1  0  0  0
 21 22  1  0  0  0
 22 23  1  0  0  0
 22 26  1  0  0  0
 23 24  1  0  0  0
 23 51  1  0  0  0
 23 52  1  0  0  0
 24 25  1  0  0  0
 24 53  1  0  0  0
 24 54  1  0  0  0
 25 55  1  0  0  0
 25 56  1  0  0  0
 25 57  1  0  0  0
 26 27  2  0  0  0
M  END
$$$$
83
                    3D
 Schrodinger Suite 2021-2.
 50 52  0  0  1  0            999 V2000
   -2.3778    7.5170    2.5778 C   0  0  0  0  0  0
   -1.8384    6.2069    2.0423 C   0  0  0  0  0  0
   -0.7508    6.2020    1.1465 C   0  0  0  0  0  0
   -0.2467    4.9832    0.6528 C   0  0  0  0  0  0
   -0.8288    3.7573    1.0370 C   0  0  0  0  0  0
   -0.2710    2.5738    0.5288 N   0  0  0  0  0  0
   -0.8666    1.3161    0.3343 C   0  0  0  0  0  0
   -2.2176    1.2403    0.2881 N   0  0  0  0  0  0
   -2.7645    0.0426    0.0753 C   0  0  0  0  0  0
   -2.1149   -1.1067   -0.1065 N   0  0  0  0  0  0
   -0.7676   -1.0507   -0.0715 C   0  0  0  0  0  0
   -0.0653    0.1574    0.1514 C   0  0  0  0  0  0
    1.4654    0.1843    0.1947 C   0  0  2  0  0  0
    2.0452   -0.7037   -0.7417 O   0  0  0  0  0  0
    2.0720   -0.1147    1.5915 C   0  0  0  0  0  0
    1.6131   -1.4477    2.2110 C   0  0  0  0  0  0
    2.3199   -1.7159    3.5490 C   0  0  0  0  0  0
    2.1213   -0.6021    4.4970 N   0  0  1  0  0  0
    2.4364   -0.9101    6.1749 S   0  0  0  0  0  0
    1.0793   -2.0586    6.6494 C   0  0  0  0  0  0
    3.7231   -1.6167    6.2689 O   0  0  0  0  0  0
    2.2326    0.3465    6.9120 O   0  0  0  0  0  0
    2.4856    0.7238    3.9597 C   0  0  0  0  0  0
    1.7917    0.9980    2.6152 C   0  0  0  0  0  0
   -1.9088    3.7669    1.9506 C   0  0  0  0  0  0
   -2.4126    4.9851    2.4463 C   0  0  0  0  0  0
   -2.2567    8.3152    1.8447 H   0  0  0  0  0  0
   -3.4392    7.4338    2.8134 H   0  0  0  0  0  0
   -1.8451    7.7998    3.4860 H   0  0  0  0  0  0
   -0.2978    7.1324    0.8368 H   0  0  0  0  0  0
    0.5895    4.9953   -0.0313 H   0  0  0  0  0  0
    0.7018    2.6353    0.2666 H   0  0  0  0  0  0
   -3.8431    0.0003    0.0461 H   0  0  0  0  0  0
   -0.2467   -1.9859   -0.2149 H   0  0  0  0  0  0
    1.8073    1.1699   -0.1209 H   0  0  0  0  0  0
    1.8136   -0.4177   -1.6123 H   0  0  0  0  0  0
    3.1555   -0.1595    1.4659 H   0  0  0  0  0  0
    0.5357   -1.4389    2.3789 H   0  0  0  0  0  0
    1.8141   -2.2713    1.5254 H   0  0  0  0  0  0
    1.9399   -2.6414    3.9792 H   0  0  0  0  0  0
    3.3895   -1.8598    3.3901 H   0  0  0  0  0  0
    1.1354   -2.2574    7.7192 H   0  0  0  0  0  0
    0.1182   -1.6003    6.4174 H   0  0  0  0  0  0
    1.1760   -2.9984    6.1077 H   0  0  0  0  0  0
    2.2026    1.5020    4.6681 H   0  0  0  0  0  0
    3.5695    0.7748    3.8481 H   0  0  0  0  0  0
    2.1282    1.9593    2.2256 H   0  0  0  0  0  0
    0.7183    1.0909    2.7847 H   0  0  0  0  0  0
   -2.3531    2.8458    2.2957 H   0  0  0  0  0  0
   -3.2380    4.9770    3.1429 H   0  0  0  0  0  0
  1  2  1  0  0  0
  1 27  1  0  0  0
  1 28  1  0  0  0
  1 29  1  0  0  0
  2 26  1  0  0  0
  2  3  2  0  0  0
  3  4  1  0  0  0
  3 30  1  0  0  0
  4  5  2  0  0  0
  4 31  1  0  0  0
  5  6  1  0  0  0
  5 25  1  0  0  0
  6  7  1  0  0  0
  6 32  1  0  0  0
  7 12  1  0  0  0
  7  8  2  0  0  0
  8  9  1  0  0  0
  9 10  2  0  0  0
  9 33  1  0  0  0
 10 11  1  0  0  0
 11 12  2  0  0  0
 11 34  1  0  0  0
 12 13  1  0  0  0
 13 14  1  0  0  0
 13 15  1  0  0  0
 13 35  1  0  0  0
 14 36  1  0  0  0
 15 24  1  0  0  0
 15 16  1  0  0  0
 15 37  1  0  0  0
 16 17  1  0  0  0
 16 38  1  0  0  0
 16 39  1  0  0  0
 17 18  1  0  0  0
 17 40  1  0  0  0
 17 41  1  0  0  0
 18 19  1  0  0  0
 18 23  1  0  0  0
 19 20  1  0  0  0
 19 21  2  0  0  0
 19 22  2  0  0  0
 20 42  1  0  0  0
 20 43  1  0  0  0
 20 44  1  0  0  0
 23 24  1  0  0  0
 23 45  1  0  0  0
 23 46  1  0  0  0
 24 47  1  0  0  0
 24 48  1  0  0  0
 25 26  2  0  0  0
 25 49  1  0  0  0
 26 50  1  0  0  0
M  END
$$$$
84
                    3D
 Schrodinger Suite 2021-2.
 49 52  0  0  1  0            999 V2000
   -4.6010   -2.7273    0.5965 N   0  3  0  0  0  0
   -4.1017   -1.6560   -0.2830 C   0  0  0  0  0  0
   -2.5649   -1.5554   -0.2534 C   0  0  1  0  0  0
   -2.0541   -0.6197   -1.3670 C   0  0  0  0  0  0
   -0.5218   -0.5012   -1.3541 C   0  0  0  0  0  0
   -0.0096   -0.0125    0.0164 C   0  0  2  0  0  0
    1.4461    0.0795    0.0466 N   0  0  0  0  0  0
    2.1345    1.1366   -0.5672 C   0  0  0  0  0  0
    3.5457    1.1382   -0.5644 C   0  0  0  0  0  0
    4.2601    2.1270   -1.1428 N   0  0  0  0  0  0
    3.5565    3.1203   -1.7290 C   0  0  0  0  0  0
    2.1408    3.1387   -1.7435 C   0  0  0  0  0  0
    1.3535    4.2143   -2.3858 C   0  0  0  0  0  0
    0.0764    3.9495   -2.9435 C   0  0  0  0  0  0
   -0.6673    4.9682   -3.5675 C   0  0  0  0  0  0
   -0.1172    6.2563   -3.6314 C   0  0  0  0  0  0
   -0.6741    7.3824   -4.1983 O   0  0  0  0  0  0
    0.2238    8.4099   -4.0278 C   0  0  0  0  0  0
   -0.1245    9.7433   -4.5519 C   0  0  0  0  0  0
    0.6956   10.6742   -4.3940 O   0  0  0  0  0  0
   -1.2210    9.8971   -5.1340 O   0  5  0  0  0  0
    1.3465    7.9731   -3.3598 C   0  0  0  0  0  0
    1.1492    6.5781   -3.0944 C   0  0  0  0  0  0
    1.8691    5.5327   -2.4716 C   0  0  0  0  0  0
    1.4396    2.1410   -1.1529 N   0  0  0  0  0  0
   -0.5092   -0.9494    1.1298 C   0  0  0  0  0  0
   -2.0414   -1.0712    1.1160 C   0  0  0  0  0  0
   -5.6097   -2.7567    0.5537 H   0  0  0  0  0  0
   -4.3102   -2.5457    1.5466 H   0  0  0  0  0  0
   -4.2256   -3.6147    0.2933 H   0  0  0  0  0  0
   -2.1562   -2.5490   -0.4461 H   0  0  0  0  0  0
   -0.4202    0.9790    0.2124 H   0  0  0  0  0  0
   -4.4456   -1.8704   -1.2954 H   0  0  0  0  0  0
   -4.5552   -0.7091    0.0122 H   0  0  0  0  0  0
   -2.3797   -0.9850   -2.3416 H   0  0  0  0  0  0
   -2.4937    0.3717   -1.2479 H   0  0  0  0  0  0
   -0.0797   -1.4700   -1.5914 H   0  0  0  0  0  0
   -0.2095    0.1799   -2.1459 H   0  0  0  0  0  0
    1.9701   -0.6696    0.4759 H   0  0  0  0  0  0
    4.1072    0.3416   -0.0984 H   0  0  0  0  0  0
    4.1372    3.8995   -2.1998 H   0  0  0  0  0  0
   -0.3423    2.9545   -2.9022 H   0  0  0  0  0  0
   -1.6387    4.7638   -3.9927 H   0  0  0  0  0  0
    2.2105    8.5617   -3.0895 H   0  0  0  0  0  0
    2.8353    5.7642   -2.0495 H   0  0  0  0  0  0
   -0.0649   -1.9388    1.0116 H   0  0  0  0  0  0
   -0.1829   -0.5785    2.1023 H   0  0  0  0  0  0
   -2.4818   -0.1030    1.3587 H   0  0  0  0  0  0
   -2.3515   -1.7566    1.9049 H   0  0  0  0  0  0
  1 28  1  0  0  0
  1 29  1  0  0  0
  1 30  1  0  0  0
  1  2  1  0  0  0
  2  3  1  0  0  0
  2 33  1  0  0  0
  2 34  1  0  0  0
  3 31  1  0  0  0
  3 27  1  0  0  0
  3  4  1  0  0  0
  4  5  1  0  0  0
  4 35  1  0  0  0
  4 36  1  0  0  0
  5  6  1  0  0  0
  5 37  1  0  0  0
  5 38  1  0  0  0
  6 32  1  0  0  0
  6  7  1  0  0  0
  6 26  1  0  0  0
  7  8  1  0  0  0
  7 39  1  0  0  0
  8 25  1  0  0  0
  8  9  2  0  0  0
  9 10  1  0  0  0
  9 40  1  0  0  0
 10 11  2  0  0  0
 11 12  1  0  0  0
 11 41  1  0  0  0
 12 13  1  0  0  0
 12 25  2  0  0  0
 13 24  1  0  0  0
 13 14  2  0  0  0
 14 15  1  0  0  0
 14 42  1  0  0  0
 15 16  2  0  0  0
 15 43  1  0  0  0
 16 23  1  0  0  0
 16 17  1  0  0  0
 17 18  1  0  0  0
 18 19  1  0  0  0
 18 22  2  0  0  0
 19 20  2  0  0  0
 19 21  1  0  0  0
 22 23  1  0  0  0
 22 44  1  0  0  0
 23 24  2  0  0  0
 24 45  1  0  0  0
 26 27  1  0  0  0
 26 46  1  0  0  0
 26 47  1  0  0  0
 27 48  1  0  0  0
 27 49  1  0  0  0
M  CHG  2   1   1  21  -1
M  END
$$$$
85
                    3D
 Schrodinger Suite 2021-2.
 54 57  0  0  1  0            999 V2000
   -2.4968    4.8129   -0.5679 C   0  0  0  0  0  0
   -1.9244    3.4882   -0.2526 N   0  0  0  0  0  0
   -0.5089    3.3606   -0.1569 C   0  0  0  0  0  0
    0.1872    4.5477   -0.3952 N   0  0  0  0  0  0
    1.6205    4.8210   -0.2640 C   0  0  0  0  0  0
    1.8498    6.2858   -0.6783 C   0  0  0  0  0  0
    2.4579    3.9203   -1.1984 C   0  0  0  0  0  0
    2.0780    4.6560    1.1999 C   0  0  0  0  0  0
    0.0807    2.2377    0.1240 N   0  0  0  0  0  0
   -0.6751    1.0723    0.3242 C   0  0  0  0  0  0
   -2.0878    1.1134    0.2416 C   0  0  0  0  0  0
   -2.8460   -0.0635    0.4207 C   0  0  0  0  0  0
   -2.1972   -1.2838    0.6737 C   0  0  0  0  0  0
   -0.7940   -1.3299    0.7504 C   0  0  0  0  0  0
   -0.0187   -0.1610    0.5834 C   0  0  0  0  0  0
    1.4382   -0.2569    0.6739 C   0  0  0  0  0  0
    2.3761    0.5034    1.3428 C   0  0  0  0  0  0
    3.6444   -0.0613    1.0345 C   0  0  0  0  0  0
    3.4605   -1.1127    0.2273 C   0  0  0  0  0  0
    2.1162   -1.2636   -0.0093 N   0  0  0  0  0  0
    4.6938   -1.8112   -0.1838 C   0  0  1  0  0  0
    4.9420   -1.7988   -1.7024 C   0  0  0  0  0  0
    6.2619   -2.4747   -2.1041 C   0  0  0  0  0  0
    6.4072   -2.4484   -3.5077 O   0  0  0  0  0  0
    5.6660   -0.9765    0.5437 N   0  0  0  0  0  0
    5.0902    0.0304    1.2373 C   0  0  0  0  0  0
    5.6694    0.8736    1.9180 O   0  0  0  0  0  0
   -2.7544    2.4284   -0.0506 C   0  0  0  0  0  0
   -3.9842    2.4958   -0.1033 O   0  0  0  0  0  0
    1.6916   -1.9722   -0.5902 H   0  0  0  0  0  0
    4.7064   -2.8277    0.2112 H   0  0  0  0  0  0
   -2.2185    5.5435    0.1934 H   0  0  0  0  0  0
   -2.1354    5.1683   -1.5342 H   0  0  0  0  0  0
   -3.5856    4.8302   -0.6253 H   0  0  0  0  0  0
   -0.3345    5.3759   -0.6423 H   0  0  0  0  0  0
    1.2835    6.9720   -0.0472 H   0  0  0  0  0  0
    2.9019    6.5632   -0.6001 H   0  0  0  0  0  0
    1.5416    6.4597   -1.7101 H   0  0  0  0  0  0
    2.4175    2.8702   -0.9104 H   0  0  0  0  0  0
    2.1167    3.9931   -2.2317 H   0  0  0  0  0  0
    3.5100    4.2072   -1.1802 H   0  0  0  0  0  0
    1.9677    3.6308    1.5499 H   0  0  0  0  0  0
    3.1291    4.9223    1.3168 H   0  0  0  0  0  0
    1.5013    5.2941    1.8705 H   0  0  0  0  0  0
   -3.9245   -0.0426    0.3604 H   0  0  0  0  0  0
   -2.7758   -2.1857    0.8081 H   0  0  0  0  0  0
   -0.3106   -2.2755    0.9479 H   0  0  0  0  0  0
    2.1704    1.3570    1.9703 H   0  0  0  0  0  0
    4.1140   -2.3047   -2.2008 H   0  0  0  0  0  0
    4.9352   -0.7702   -2.0669 H   0  0  0  0  0  0
    7.1136   -1.9653   -1.6528 H   0  0  0  0  0  0
    6.2817   -3.5107   -1.7650 H   0  0  0  0  0  0
    7.2274   -2.8600   -3.7338 H   0  0  0  0  0  0
    6.6611   -1.1440    0.5111 H   0  0  0  0  0  0
  1  2  1  0  0  0
  1 32  1  0  0  0
  1 33  1  0  0  0
  1 34  1  0  0  0
  2 28  1  0  0  0
  2  3  1  0  0  0
  3  4  1  0  0  0
  3  9  2  0  0  0
  4  5  1  0  0  0
  4 35  1  0  0  0
  5  6  1  0  0  0
  5  7  1  0  0  0
  5  8  1  0  0  0
  6 36  1  0  0  0
  6 37  1  0  0  0
  6 38  1  0  0  0
  7 39  1  0  0  0
  7 40  1  0  0  0
  7 41  1  0  0  0
  8 42  1  0  0  0
  8 43  1  0  0  0
  8 44  1  0  0  0
  9 10  1  0  0  0
 10 15  2  0  0  0
 10 11  1  0  0  0
 11 12  2  0  0  0
 11 28  1  0  0  0
 12 13  1  0  0  0
 12 45  1  0  0  0
 13 14  2  0  0  0
 13 46  1  0  0  0
 14 15  1  0  0  0
 14 47  1  0  0  0
 15 16  1  0  0  0
 16 20  1  0  0  0
 16 17  2  0  0  0
 17 18  1  0  0  0
 17 48  1  0  0  0
 18 26  1  0  0  0
 18 19  2  0  0  0
 19 20  1  0  0  0
 19 21  1  0  0  0
 20 30  1  0  0  0
 21 31  1  0  0  0
 21 22  1  0  0  0
 21 25  1  0  0  0
 22 23  1  0  0  0
 22 49  1  0  0  0
 22 50  1  0  0  0
 23 24  1  0  0  0
 23 51  1  0  0  0
 23 52  1  0  0  0
 24 53  1  0  0  0
 25 26  1  0  0  0
 25 54  1  0  0  0
 26 27  2  0  0  0
 28 29  2  0  0  0
M  END
$$$$
86
                    3D
 Schrodinger Suite 2021-2.
 54 57  0  0  1  0            999 V2000
   -2.4195    5.0583   -2.0717 C   0  0  0  0  0  0
   -1.8010    3.6680   -2.2337 C   0  0  0  0  0  0
   -1.0730    3.4695   -3.2063 O   0  0  0  0  0  0
   -2.0682    2.7119   -1.3118 N   0  0  0  0  0  0
   -2.8634    2.9051   -0.0924 C   0  0  0  0  0  0
   -1.9231    2.8495    1.1247 C   0  0  0  0  0  0
   -1.1278    1.5305    1.1489 C   0  0  0  0  0  0
   -0.4413    1.2489   -0.2079 C   0  0  1  0  0  0
    0.0876   -0.0700   -0.2508 O   0  0  0  0  0  0
    1.3107   -0.2402    0.4488 C   0  0  0  0  0  0
    1.8206   -1.6591    0.3137 C   0  0  0  0  0  0
    1.4934   -2.6389    1.2712 C   0  0  0  0  0  0
    1.9183   -3.9161    1.1927 N   0  0  0  0  0  0
    2.6927   -4.2616    0.1424 C   0  0  0  0  0  0
    3.0867   -3.3693   -0.8829 C   0  0  0  0  0  0
    3.9355   -3.8107   -2.0080 C   0  0  0  0  0  0
    4.9222   -4.8173   -1.8413 C   0  0  0  0  0  0
    5.7310   -5.2689   -2.8276 N   0  0  0  0  0  0
    5.5852   -4.7216   -4.0547 C   0  0  0  0  0  0
    4.6462   -3.7268   -4.3169 C   0  0  0  0  0  0
    3.8015   -3.2500   -3.3008 C   0  0  0  0  0  0
    4.6770   -3.2825   -5.7489 C   0  0  0  0  0  0
    5.8012   -4.1499   -6.3508 C   0  0  0  0  0  0
    6.2914   -5.0049   -5.2525 N   0  0  0  0  0  0
    7.2715   -5.9351   -5.3785 C   0  0  0  0  0  0
    7.8152   -6.0083   -6.5988 N   0  0  0  0  0  0
    7.6602   -6.6689   -4.4715 O   0  0  0  0  0  0
    2.6277   -2.0361   -0.7779 C   0  0  0  0  0  0
   -1.4602    1.3763   -1.3567 C   0  0  0  0  0  0
   -2.1149    5.5096   -1.1271 H   0  0  0  0  0  0
   -2.0941    5.7192   -2.8757 H   0  0  0  0  0  0
   -3.5078    5.0041   -2.1061 H   0  0  0  0  0  0
   -3.4292    3.8355   -0.0809 H   0  0  0  0  0  0
   -3.6090    2.1117   -0.0229 H   0  0  0  0  0  0
   -1.2318    3.6927    1.0894 H   0  0  0  0  0  0
   -2.4953    2.9557    2.0465 H   0  0  0  0  0  0
   -0.3970    1.5620    1.9565 H   0  0  0  0  0  0
   -1.8091    0.7110    1.3804 H   0  0  0  0  0  0
    0.3568    1.9744   -0.3770 H   0  0  0  0  0  0
    2.0645    0.4455    0.0589 H   0  0  0  0  0  0
    1.1858   -0.0108    1.5072 H   0  0  0  0  0  0
    0.8735   -2.3935    2.1211 H   0  0  0  0  0  0
    2.9976   -5.2973    0.1192 H   0  0  0  0  0  0
    5.0811   -5.2760   -0.8767 H   0  0  0  0  0  0
    3.0703   -2.4842   -3.5139 H   0  0  0  0  0  0
    3.7157   -3.4723   -6.2275 H   0  0  0  0  0  0
    4.9024   -2.2178   -5.8158 H   0  0  0  0  0  0
    5.4193   -4.7566   -7.1734 H   0  0  0  0  0  0
    6.6065   -3.5212   -6.7338 H   0  0  0  0  0  0
    8.5522   -6.6752   -6.7761 H   0  0  0  0  0  0
    7.4897   -5.3994   -7.3346 H   0  0  0  0  0  0
    2.8945   -1.3010   -1.5230 H   0  0  0  0  0  0
   -2.2411    0.6214   -1.2542 H   0  0  0  0  0  0
   -0.9723    1.1681   -2.3099 H   0  0  0  0  0  0
  1  2  1  0  0  0
  1 30  1  0  0  0
  1 31  1  0  0  0
  1 32  1  0  0  0
  2  3  2  0  0  0
  2  4  1  0  0  0
  4 29  1  0  0  0
  4  5  1  0  0  0
  5  6  1  0  0  0
  5 33  1  0  0  0
  5 34  1  0  0  0
  6  7  1  0  0  0
  6 35  1  0  0  0
  6 36  1  0  0  0
  7  8  1  0  0  0
  7 37  1  0  0  0
  7 38  1  0  0  0
  8  9  1  0  0  0
  8 29  1  0  0  0
  8 39  1  0  0  0
  9 10  1  0  0  0
 10 11  1  0  0  0
 10 40  1  0  0  0
 10 41  1  0  0  0
 11 28  1  0  0  0
 11 12  2  0  0  0
 12 13  1  0  0  0
 12 42  1  0  0  0
 13 14  2  0  0  0
 14 15  1  0  0  0
 14 43  1  0  0  0
 15 16  1  0  0  0
 15 28  2  0  0  0
 16 21  1  0  0  0
 16 17  2  0  0  0
 17 18  1  0  0  0
 17 44  1  0  0  0
 18 19  2  0  0  0
 19 24  1  0  0  0
 19 20  1  0  0  0
 20 21  2  0  0  0
 20 22  1  0  0  0
 21 45  1  0  0  0
 22 23  1  0  0  0
 22 46  1  0  0  0
 22 47  1  0  0  0
 23 24  1  0  0  0
 23 48  1  0  0  0
 23 49  1  0  0  0
 24 25  1  0  0  0
 25 26  1  0  0  0
 25 27  2  0  0  0
 26 50  1  0  0  0
 26 51  1  0  0  0
 28 52  1  0  0  0
 29 53  1  0  0  0
 29 54  1  0  0  0
M  END
$$$$
87
                    3D
 Schrodinger Suite 2021-2.
 52 53  0  0  1  0            999 V2000
   -5.1871    3.5602    2.6252 C   0  0  0  0  0  0
   -4.7981    4.3064    1.4307 N   0  0  1  0  0  0
   -5.2180    3.6657   -0.1162 S   0  0  0  0  0  0
   -6.6232    3.2334   -0.0540 O   0  0  0  0  0  0
   -4.7765    4.6359   -1.1297 O   0  0  0  0  0  0
   -4.1767    2.2158   -0.2331 C   0  0  0  0  0  0
   -4.7448    0.9577   -0.5108 C   0  0  0  0  0  0
   -3.9123   -0.1743   -0.5844 C   0  0  0  0  0  0
   -2.5239   -0.0483   -0.3794 C   0  0  0  0  0  0
   -1.9474    1.2156   -0.0964 C   0  0  0  0  0  0
   -0.4820    1.3815    0.1222 C   0  0  0  0  0  0
    0.0527    2.4642    0.3690 O   0  0  0  0  0  0
    0.1943    0.2212    0.0153 O   0  0  0  0  0  0
    1.6101    0.1896    0.1546 C   0  0  0  0  0  0
    2.1194   -1.2389   -0.0569 C   0  0  0  0  0  0
    3.1497   -1.6065    0.5062 O   0  0  0  0  0  0
    1.4052   -2.0280   -0.8769 N   0  0  0  0  0  0
    1.7051   -3.4193   -1.2052 C   0  0  2  0  0  0
    2.5455   -3.4646   -2.4974 C   0  0  0  0  0  0
    2.8122   -4.9036   -2.9601 C   0  0  0  0  0  0
    1.4999   -5.6869   -3.1194 C   0  0  0  0  0  0
    0.6598   -5.6838   -1.8262 C   0  0  1  0  0  0
    1.2803   -6.5899   -0.7429 C   0  0  0  0  0  0
    0.3908   -4.2281   -1.3596 C   0  0  1  0  0  0
   -0.5022   -4.1689   -0.1040 C   0  0  0  0  0  0
   -2.7900    2.3485   -0.0241 C   0  0  0  0  0  0
   -4.7934    4.0519    3.5146 H   0  0  0  0  0  0
   -6.2733    3.5133    2.7043 H   0  0  0  0  0  0
   -4.7920    2.5450    2.5854 H   0  0  0  0  0  0
   -5.0530    5.2914    1.5016 H   0  0  0  0  0  0
   -5.8082    0.8537   -0.6677 H   0  0  0  0  0  0
   -4.3389   -1.1430   -0.7982 H   0  0  0  0  0  0
   -1.9164   -0.9390   -0.4443 H   0  0  0  0  0  0
    2.0827    0.8434   -0.5803 H   0  0  0  0  0  0
    1.9000    0.5349    1.1486 H   0  0  0  0  0  0
    0.5761   -1.6338   -1.2976 H   0  0  0  0  0  0
    2.2861   -3.8618   -0.3944 H   0  0  0  0  0  0
    2.0270   -2.9253   -3.2916 H   0  0  0  0  0  0
    3.4944   -2.9485   -2.3454 H   0  0  0  0  0  0
    3.3513   -4.8910   -3.9078 H   0  0  0  0  0  0
    3.4646   -5.4058   -2.2453 H   0  0  0  0  0  0
    0.9172   -5.2411   -3.9267 H   0  0  0  0  0  0
    1.7116   -6.7102   -3.4313 H   0  0  0  0  0  0
   -0.3042   -6.1280   -2.0778 H   0  0  0  0  0  0
    2.2286   -6.2015   -0.3729 H   0  0  0  0  0  0
    0.6145   -6.7058    0.1120 H   0  0  0  0  0  0
    1.4677   -7.5899   -1.1349 H   0  0  0  0  0  0
   -0.1816   -3.7533   -2.1585 H   0  0  0  0  0  0
    0.0291   -4.5127    0.7837 H   0  0  0  0  0  0
   -0.8457   -3.1538    0.0957 H   0  0  0  0  0  0
   -1.3902   -4.7899   -0.2247 H   0  0  0  0  0  0
   -2.3823    3.3260    0.1907 H   0  0  0  0  0  0
  1  2  1  0  0  0
  1 27  1  0  0  0
  1 28  1  0  0  0
  1 29  1  0  0  0
  2  3  1  0  0  0
  2 30  1  0  0  0
  3  4  2  0  0  0
  3  5  2  0  0  0
  3  6  1  0  0  0
  6 26  1  0  0  0
  6  7  2  0  0  0
  7  8  1  0  0  0
  7 31  1  0  0  0
  8  9  2  0  0  0
  8 32  1  0  0  0
  9 10  1  0  0  0
  9 33  1  0  0  0
 10 11  1  0  0  0
 10 26  2  0  0  0
 11 12  2  0  0  0
 11 13  1  0  0  0
 13 14  1  0  0  0
 14 15  1  0  0  0
 14 34  1  0  0  0
 14 35  1  0  0  0
 15 16  2  0  0  0
 15 17  1  0  0  0
 17 18  1  0  0  0
 17 36  1  0  0  0
 18 24  1  0  0  0
 18 19  1  0  0  0
 18 37  1  0  0  0
 19 20  1  0  0  0
 19 38  1  0  0  0
 19 39  1  0  0  0
 20 21  1  0  0  0
 20 40  1  0  0  0
 20 41  1  0  0  0
 21 22  1  0  0  0
 21 42  1  0  0  0
 21 43  1  0  0  0
 22 23  1  0  0  0
 22 24  1  0  0  0
 22 44  1  0  0  0
 23 45  1  0  0  0
 23 46  1  0  0  0
 23 47  1  0  0  0
 24 25  1  0  0  0
 24 48  1  0  0  0
 25 49  1  0  0  0
 25 50  1  0  0  0
 25 51  1  0  0  0
 26 52  1  0  0  0
M  END
$$$$
88
                    3D
 Schrodinger Suite 2021-2.
 43 46  0  0  1  0            999 V2000
   -1.1472    1.0931    2.3357 O   0  0  0  0  0  0
   -1.0314    1.6183    1.2288 C   0  0  0  0  0  0
   -0.5575    0.9832    0.1455 N   0  0  0  0  0  0
   -0.0481   -0.3827    0.1189 C   0  0  0  0  0  0
    1.4412   -0.3229   -0.0141 C   0  0  0  0  0  0
    2.1034   -0.4466   -1.1772 N   0  0  0  0  0  0
    3.4556   -0.3147   -0.8689 N   0  0  0  0  0  0
    3.4583   -0.1249    0.4480 C   0  0  0  0  0  0
    2.2735   -0.1231    1.0242 N   0  0  0  0  0  0
    2.2387    0.0848    2.4491 C   0  0  1  0  0  0
    1.7253   -1.1710    3.1667 C   0  0  0  0  0  0
    2.4080   -2.1957    3.1993 O   0  0  0  0  0  0
    0.5060   -1.0766    3.7148 N   0  0  0  0  0  0
   -0.1955   -2.1268    4.3758 C   0  0  0  0  0  0
   -1.6931   -2.2001    4.1698 C   0  0  0  0  0  0
   -1.1422   -1.7433    5.4923 C   0  0  0  0  0  0
    3.7369    0.3952    2.7471 C   0  0  0  0  0  0
    4.5286    0.0944    1.4458 C   0  0  0  0  0  0
   -1.3909    3.0607    1.0111 C   0  0  0  0  0  0
   -2.1962    3.4132   -0.0970 C   0  0  0  0  0  0
   -2.5760    4.7511   -0.3127 C   0  0  0  0  0  0
   -2.1546    5.7535    0.5792 C   0  0  0  0  0  0
   -2.6194    7.3944    0.3178 Cl  0  0  0  0  0  0
   -1.3517    5.4155    1.6843 C   0  0  0  0  0  0
   -0.9670    4.0778    1.9078 C   0  0  0  0  0  0
    0.0494    3.7427    3.2696 Cl  0  0  0  0  0  0
   -0.4978    1.5037   -0.7178 H   0  0  0  0  0  0
   -0.3265   -0.9570    1.0029 H   0  0  0  0  0  0
   -0.4679   -0.9015   -0.7432 H   0  0  0  0  0  0
    1.6126    0.9500    2.6701 H   0  0  0  0  0  0
    0.0200   -0.1949    3.6282 H   0  0  0  0  0  0
    0.3197   -3.0794    4.4908 H   0  0  0  0  0  0
   -2.1570   -1.4487    3.5331 H   0  0  0  0  0  0
   -2.1458   -3.1888    4.1281 H   0  0  0  0  0  0
   -1.2273   -2.4268    6.3347 H   0  0  0  0  0  0
   -1.2400   -0.6874    5.7377 H   0  0  0  0  0  0
    3.8345    1.4532    2.9931 H   0  0  0  0  0  0
    4.1398   -0.1587    3.5963 H   0  0  0  0  0  0
    5.1284   -0.8114    1.5388 H   0  0  0  0  0  0
    5.1720    0.9225    1.1473 H   0  0  0  0  0  0
   -2.5389    2.6554   -0.7871 H   0  0  0  0  0  0
   -3.1944    5.0057   -1.1611 H   0  0  0  0  0  0
   -1.0251    6.1886    2.3644 H   0  0  0  0  0  0
  1  2  2  0  0  0
  2  3  1  0  0  0
  2 19  1  0  0  0
  3  4  1  0  0  0
  3 27  1  0  0  0
  4  5  1  0  0  0
  4 28  1  0  0  0
  4 29  1  0  0  0
  5  9  1  0  0  0
  5  6  2  0  0  0
  6  7  1  0  0  0
  7  8  2  0  0  0
  8 18  1  0  0  0
  8  9  1  0  0  0
  9 10  1  0  0  0
 10 11  1  0  0  0
 10 17  1  0  0  0
 10 30  1  0  0  0
 11 12  2  0  0  0
 11 13  1  0  0  0
 13 14  1  0  0  0
 13 31  1  0  0  0
 14 16  1  0  0  0
 14 15  1  0  0  0
 14 32  1  0  0  0
 15 16  1  0  0  0
 15 33  1  0  0  0
 15 34  1  0  0  0
 16 35  1  0  0  0
 16 36  1  0  0  0
 17 18  1  0  0  0
 17 37  1  0  0  0
 17 38  1  0  0  0
 18 39  1  0  0  0
 18 40  1  0  0  0
 19 25  1  0  0  0
 19 20  2  0  0  0
 20 21  1  0  0  0
 20 41  1  0  0  0
 21 22  2  0  0  0
 21 42  1  0  0  0
 22 23  1  0  0  0
 22 24  1  0  0  0
 24 25  2  0  0  0
 24 43  1  0  0  0
 25 26  1  0  0  0
M  END
$$$$
89
                    3D
 Schrodinger Suite 2021-2.
 55 57  0  0  1  0            999 V2000
   -4.8188    1.6175   -0.2739 C   0  0  0  0  0  0
   -4.1007    0.4139   -0.5011 O   0  0  0  0  0  0
   -2.7324    0.4252   -0.3256 C   0  0  0  0  0  0
   -2.0087    1.5589    0.1229 C   0  0  0  0  0  0
   -0.6102    1.5071    0.2603 C   0  0  0  0  0  0
    0.0858    0.3235   -0.0469 C   0  0  0  0  0  0
    1.6012    0.2856    0.0197 C   0  0  0  0  0  0
    2.1522    0.1856   -1.3234 N   0  0  0  0  0  0
    2.7365   -0.8939   -1.8685 C   0  0  0  0  0  0
    3.0575   -1.8892   -1.2210 O   0  0  0  0  0  0
    2.9255   -0.8844   -3.3949 C   0  0  0  0  0  0
    1.8462   -0.1703   -4.0971 N   0  0  0  0  0  0
    1.9100    1.1075   -4.5103 C   0  0  0  0  0  0
    2.8839    1.8542   -4.4324 O   0  0  0  0  0  0
    0.7144    1.4474   -5.0068 N   0  0  0  0  0  0
   -0.2671    0.3779   -4.9268 C   0  0  0  0  0  0
   -1.4232    0.7146   -3.9514 C   0  0  0  0  0  0
   -2.2193    1.9911   -4.2662 C   0  0  0  0  0  0
   -2.8726    2.0185   -5.6588 C   0  0  0  0  0  0
   -1.8652    2.2862   -6.7891 C   0  0  0  0  0  0
   -1.1125    1.0533   -7.3262 C   0  0  0  0  0  0
   -0.7840   -0.0669   -6.3180 C   0  0  0  0  0  0
    0.6286   -0.6894   -4.3109 C   0  0  0  0  0  0
    0.2515   -1.8290   -4.0375 O   0  0  0  0  0  0
   -0.6287   -0.8119   -0.4785 C   0  0  0  0  0  0
   -2.0382   -0.7704   -0.6217 C   0  0  0  0  0  0
   -2.7925   -1.8408   -1.0560 O   0  0  0  0  0  0
   -2.1253   -3.0578   -1.3564 C   0  0  0  0  0  0
   -5.8756    1.4489   -0.4799 H   0  0  0  0  0  0
   -4.7335    1.9430    0.7637 H   0  0  0  0  0  0
   -4.4779    2.4162   -0.9344 H   0  0  0  0  0  0
   -2.5036    2.4881    0.3601 H   0  0  0  0  0  0
   -0.0738    2.3865    0.5853 H   0  0  0  0  0  0
    1.9816    1.1950    0.4857 H   0  0  0  0  0  0
    1.9142   -0.5456    0.6534 H   0  0  0  0  0  0
    1.9537    0.9602   -1.9399 H   0  0  0  0  0  0
    3.8950   -0.4384   -3.6215 H   0  0  0  0  0  0
    2.9776   -1.9128   -3.7571 H   0  0  0  0  0  0
    0.4936    2.3596   -5.3790 H   0  0  0  0  0  0
   -2.1155   -0.1274   -3.9034 H   0  0  0  0  0  0
   -1.0269    0.8194   -2.9404 H   0  0  0  0  0  0
   -3.0054    2.0855   -3.5160 H   0  0  0  0  0  0
   -1.5852    2.8685   -4.1341 H   0  0  0  0  0  0
   -3.4429    1.1080   -5.8463 H   0  0  0  0  0  0
   -3.6007    2.8303   -5.6628 H   0  0  0  0  0  0
   -2.3893    2.7476   -7.6267 H   0  0  0  0  0  0
   -1.1470    3.0375   -6.4589 H   0  0  0  0  0  0
   -1.6987    0.6103   -8.1320 H   0  0  0  0  0  0
   -0.1900    1.3950   -7.7967 H   0  0  0  0  0  0
   -0.0610   -0.7302   -6.7964 H   0  0  0  0  0  0
   -1.6743   -0.6817   -6.1792 H   0  0  0  0  0  0
   -0.0674   -1.7030   -0.7162 H   0  0  0  0  0  0
   -2.8577   -3.8020   -1.6686 H   0  0  0  0  0  0
   -1.4156   -2.9324   -2.1744 H   0  0  0  0  0  0
   -1.6049   -3.4542   -0.4834 H   0  0  0  0  0  0
  1  2  1  0  0  0
  1 29  1  0  0  0
  1 30  1  0  0  0
  1 31  1  0  0  0
  2  3  1  0  0  0
  3 26  1  0  0  0
  3  4  2  0  0  0
  4  5  1  0  0  0
  4 32  1  0  0  0
  5  6  2  0  0  0
  5 33  1  0  0  0
  6  7  1  0  0  0
  6 25  1  0  0  0
  7  8  1  0  0  0
  7 34  1  0  0  0
  7 35  1  0  0  0
  8  9  1  0  0  0
  8 36  1  0  0  0
  9 10  2  0  0  0
  9 11  1  0  0  0
 11 12  1  0  0  0
 11 37  1  0  0  0
 11 38  1  0  0  0
 12 23  1  0  0  0
 12 13  1  0  0  0
 13 14  2  0  0  0
 13 15  1  0  0  0
 15 16  1  0  0  0
 15 39  1  0  0  0
 16 22  1  0  0  0
 16 17  1  0  0  0
 16 23  1  0  0  0
 17 18  1  0  0  0
 17 40  1  0  0  0
 17 41  1  0  0  0
 18 19  1  0  0  0
 18 42  1  0  0  0
 18 43  1  0  0  0
 19 20  1  0  0  0
 19 44  1  0  0  0
 19 45  1  0  0  0
 20 21  1  0  0  0
 20 46  1  0  0  0
 20 47  1  0  0  0
 21 22  1  0  0  0
 21 48  1  0  0  0
 21 49  1  0  0  0
 22 50  1  0  0  0
 22 51  1  0  0  0
 23 24  2  0  0  0
 25 26  2  0  0  0
 25 52  1  0  0  0
 26 27  1  0  0  0
 27 28  1  0  0  0
 28 53  1  0  0  0
 28 54  1  0  0  0
 28 55  1  0  0  0
M  END
$$$$
90
                    3D
 Schrodinger Suite 2021-2.
 36 37  0  0  1  0            999 V2000
   -6.1301   -2.7154    0.0423 C   0  0  0  0  0  0
   -4.6789   -2.2826    0.0061 C   0  0  0  0  0  0
   -4.2159   -1.2606    0.8583 C   0  0  0  0  0  0
   -2.8658   -0.8635    0.8194 C   0  0  0  0  0  0
   -1.9635   -1.4780   -0.0826 C   0  0  0  0  0  0
   -0.5864   -1.1306   -0.1493 N   0  0  0  0  0  0
   -0.0060    0.0505    0.1316 C   0  0  0  0  0  0
   -0.6081    1.0617    0.4908 O   0  0  0  0  0  0
    1.5086    0.1039   -0.0515 C   0  0  0  0  0  0
    2.1200   -0.5723    1.0371 O   0  0  0  0  0  0
    3.4669   -0.6781    1.0987 C   0  0  0  0  0  0
    4.2517   -0.2374    0.2574 O   0  0  0  0  0  0
    3.9245   -1.3979    2.3103 C   0  0  0  0  0  0
    3.0518   -1.8756    3.1410 N   0  0  0  0  0  0
    3.4442   -2.5498    4.2724 N   0  0  0  0  0  0
    4.6903   -2.5969    4.7827 C   0  0  0  0  0  0
    4.9730   -3.2250    5.8004 O   0  0  0  0  0  0
    5.7559   -1.7875    4.0385 C   0  0  0  0  0  0
    5.4119   -1.5994    2.5441 C   0  0  0  0  0  0
   -2.4298   -2.5149   -0.9233 C   0  0  0  0  0  0
   -1.2497   -3.3950   -2.1355 Br  0  0  0  0  0  0
   -3.7819   -2.9083   -0.8813 C   0  0  0  0  0  0
   -6.6799   -2.2011    0.8311 H   0  0  0  0  0  0
   -6.6130   -2.4950   -0.9099 H   0  0  0  0  0  0
   -6.2005   -3.7883    0.2233 H   0  0  0  0  0  0
   -4.8922   -0.7797    1.5498 H   0  0  0  0  0  0
   -2.5403   -0.0934    1.5019 H   0  0  0  0  0  0
    0.0207   -1.8419   -0.5310 H   0  0  0  0  0  0
    1.7792   -0.3649   -0.9997 H   0  0  0  0  0  0
    1.8380    1.1441   -0.0881 H   0  0  0  0  0  0
    2.6922   -3.0150    4.7604 H   0  0  0  0  0  0
    5.8238   -0.8132    4.5241 H   0  0  0  0  0  0
    6.7323   -2.2609    4.1474 H   0  0  0  0  0  0
    5.7476   -2.4684    1.9767 H   0  0  0  0  0  0
    5.9794   -0.7488    2.1644 H   0  0  0  0  0  0
   -4.1307   -3.6955   -1.5336 H   0  0  0  0  0  0
  1  2  1  0  0  0
  1 23  1  0  0  0
  1 24  1  0  0  0
  1 25  1  0  0  0
  2 22  1  0  0  0
  2  3  2  0  0  0
  3  4  1  0  0  0
  3 26  1  0  0  0
  4  5  2  0  0  0
  4 27  1  0  0  0
  5  6  1  0  0  0
  5 20  1  0  0  0
  6  7  1  0  0  0
  6 28  1  0  0  0
  7  8  2  0  0  0
  7  9  1  0  0  0
  9 10  1  0  0  0
  9 29  1  0  0  0
  9 30  1  0  0  0
 10 11  1  0  0  0
 11 12  2  0  0  0
 11 13  1  0  0  0
 13 19  1  0  0  0
 13 14  2  0  0  0
 14 15  1  0  0  0
 15 16  1  0  0  0
 15 31  1  0  0  0
 16 17  2  0  0  0
 16 18  1  0  0  0
 18 19  1  0  0  0
 18 32  1  0  0  0
 18 33  1  0  0  0
 19 34  1  0  0  0
 19 35  1  0  0  0
 20 21  1  0  0  0
 20 22  2  0  0  0
 22 36  1  0  0  0
M  END
$$$$
91
                    3D
 Schrodinger Suite 2021-2.
 48 51  0  0  1  0            999 V2000
   -2.8275   -2.6196   -0.0950 C   0  0  0  0  0  0
   -2.1524   -1.3222   -0.0605 N   0  0  0  0  0  0
   -0.7305   -1.3032   -0.0333 C   0  0  0  0  0  0
    0.0150   -0.1695   -0.0053 C   0  0  0  0  0  0
    1.4829   -0.2076    0.0407 C   0  0  0  0  0  0
    2.1870   -0.0569   -1.1706 C   0  0  0  0  0  0
    3.5938   -0.0482   -1.1630 C   0  0  0  0  0  0
    4.4808    0.1857   -2.6978 S   0  0  0  0  0  0
    4.5426    2.0136   -2.8850 C   0  0  0  0  0  0
    5.8568   -0.3014   -2.5136 O   0  0  0  0  0  0
    3.6562   -0.3578   -3.7880 O   0  0  0  0  0  0
    4.3013   -0.1593    0.0485 C   0  0  0  0  0  0
    3.5953   -0.3002    1.2588 C   0  0  0  0  0  0
    2.1790   -0.3206    1.2710 C   0  0  0  0  0  0
    1.4478   -0.4448    2.4650 N   0  0  0  0  0  0
    2.0277   -0.0504    3.7421 C   0  0  2  0  0  0
    1.0673   -0.2453    4.8956 C   0  0  0  0  0  0
    1.6833    0.6591    5.9575 C   0  0  0  0  0  0
    2.2538    1.7527    5.2441 O   0  0  0  0  0  0
    2.3185    1.4487    3.8533 C   0  0  0  0  0  0
   -0.7257    1.0950    0.0080 C   0  0  0  0  0  0
   -0.2956    2.4514    0.0462 C   0  0  0  0  0  0
   -1.4403    3.2132    0.0442 C   0  0  0  0  0  0
   -2.5288    2.3516    0.0085 N   0  0  0  0  0  0
   -2.0773    1.0514   -0.0123 C   0  0  0  0  0  0
   -2.8894   -0.1751   -0.0496 C   0  0  0  0  0  0
   -4.1199   -0.1305   -0.0676 O   0  0  0  0  0  0
   -3.4996    2.6310   -0.0008 H   0  0  0  0  0  0
   -2.1277   -3.4539   -0.1510 H   0  0  0  0  0  0
   -3.4327   -2.7578    0.8020 H   0  0  0  0  0  0
   -3.4854   -2.6876   -0.9628 H   0  0  0  0  0  0
   -0.2735   -2.2823   -0.0328 H   0  0  0  0  0  0
    1.6478    0.0561   -2.0999 H   0  0  0  0  0  0
    5.0695    2.2660   -3.8049 H   0  0  0  0  0  0
    3.5279    2.4091   -2.9281 H   0  0  0  0  0  0
    5.0663    2.4498   -2.0347 H   0  0  0  0  0  0
    5.3809   -0.1341    0.0577 H   0  0  0  0  0  0
    4.1632   -0.3877    2.1723 H   0  0  0  0  0  0
    0.4411   -0.4034    2.3931 H   0  0  0  0  0  0
    2.9304   -0.6270    3.9466 H   0  0  0  0  0  0
    0.0704    0.1148    4.6345 H   0  0  0  0  0  0
    0.9835   -1.2841    5.2163 H   0  0  0  0  0  0
    0.9536    0.9981    6.6931 H   0  0  0  0  0  0
    2.4803    0.1350    6.4864 H   0  0  0  0  0  0
    3.2863    1.7215    3.4321 H   0  0  0  0  0  0
    1.5514    2.0330    3.3425 H   0  0  0  0  0  0
    0.7175    2.8249    0.0719 H   0  0  0  0  0  0
   -1.5833    4.2835    0.0652 H   0  0  0  0  0  0
  1  2  1  0  0  0
  1 29  1  0  0  0
  1 30  1  0  0  0
  1 31  1  0  0  0
  2 26  1  0  0  0
  2  3  1  0  0  0
  3  4  2  0  0  0
  3 32  1  0  0  0
  4  5  1  0  0  0
  4 21  1  0  0  0
  5 14  1  0  0  0
  5  6  2  0  0  0
  6  7  1  0  0  0
  6 33  1  0  0  0
  7  8  1  0  0  0
  7 12  2  0  0  0
  8  9  1  0  0  0
  8 10  2  0  0  0
  8 11  2  0  0  0
  9 34  1  0  0  0
  9 35  1  0  0  0
  9 36  1  0  0  0
 12 13  1  0  0  0
 12 37  1  0  0  0
 13 14  2  0  0  0
 13 38  1  0  0  0
 14 15  1  0  0  0
 15 16  1  0  0  0
 15 39  1  0  0  0
 16 20  1  0  0  0
 16 17  1  0  0  0
 16 40  1  0  0  0
 17 18  1  0  0  0
 17 41  1  0  0  0
 17 42  1  0  0  0
 18 19  1  0  0  0
 18 43  1  0  0  0
 18 44  1  0  0  0
 19 20  1  0  0  0
 20 45  1  0  0  0
 20 46  1  0  0  0
 21 25  2  0  0  0
 21 22  1  0  0  0
 22 23  2  0  0  0
 22 47  1  0  0  0
 23 24  1  0  0  0
 23 48  1  0  0  0
 24 28  1  0  0  0
 24 25  1  0  0  0
 25 26  1  0  0  0
 26 27  2  0  0  0
M  END
$$$$
92
                    3D
 Schrodinger Suite 2021-2.
 56 58  0  0  1  0            999 V2000
    0.9578   -2.7415   -1.4735 C   0  0  0  0  0  0
    0.5071   -2.4706   -0.0344 C   0  0  0  0  0  0
   -0.4122   -1.3260    0.0338 N   0  0  0  0  0  0
   -0.0612   -0.0247    0.0685 C   0  0  0  0  0  0
    1.2452    0.3187    0.0583 N   0  0  0  0  0  0
    1.6511    1.6266    0.0996 N   0  0  0  0  0  0
    2.9348    1.5621    0.0478 C   0  0  0  0  0  0
    3.7720    2.7375    0.0739 C   0  0  0  0  0  0
    5.1099    2.6047   -0.0156 C   0  0  0  0  0  0
    6.0949    3.7011    0.0001 C   0  0  0  0  0  0
    7.4563    3.3914   -0.2065 C   0  0  0  0  0  0
    8.4328    4.4058   -0.2147 C   0  0  0  0  0  0
    8.0638    5.7525   -0.0229 C   0  0  0  0  0  0
    9.0938    6.7940   -0.0223 C   0  0  0  0  0  0
   10.3033    6.8388    0.6394 C   0  0  0  0  0  0
   10.8229    8.0572    0.2616 N   0  0  0  0  0  0
   12.0311    8.5585    0.6856 C   0  0  0  0  0  0
   12.4203    9.7985    0.2225 C   0  0  0  0  0  0
   11.5796   10.5212   -0.6663 C   0  0  0  0  0  0
   10.3740    9.9877   -1.0718 C   0  0  0  0  0  0
   10.0476    8.7347   -0.5691 C   0  0  0  0  0  0
    8.9693    7.9697   -0.7815 N   0  3  0  0  0  0
    7.9173    8.4210   -1.7045 C   0  0  0  0  0  0
    6.7059    6.0666    0.1968 C   0  0  0  0  0  0
    5.7291    5.0522    0.2016 C   0  0  0  0  0  0
   -1.0211    0.9226    0.1115 N   0  3  0  0  0  0
   -2.4697    0.6801    0.1261 C   0  0  0  0  0  0
   -3.2519    1.9962    0.0994 C   0  0  0  0  0  0
   -0.7269    1.8887    0.1452 H   0  0  0  0  0  0
    1.4571   -3.7078   -1.5468 H   0  0  0  0  0  0
    0.1102   -2.7538   -2.1597 H   0  0  0  0  0  0
    1.6575   -1.9792   -1.8170 H   0  0  0  0  0  0
   -0.0235   -3.3432    0.3472 H   0  0  0  0  0  0
    1.3637   -2.3123    0.6212 H   0  0  0  0  0  0
   -1.3977   -1.5470    0.0134 H   0  0  0  0  0  0
    1.9617   -0.3919    0.0155 H   0  0  0  0  0  0
    3.4971    0.6250   -0.0203 H   0  0  0  0  0  0
    3.2996    3.7041    0.1640 H   0  0  0  0  0  0
    5.5318    1.6128   -0.1056 H   0  0  0  0  0  0
    7.7613    2.3669   -0.3633 H   0  0  0  0  0  0
    9.4687    4.1445   -0.3752 H   0  0  0  0  0  0
   10.7949    6.1505    1.3115 H   0  0  0  0  0  0
   12.6108    7.9426    1.3662 H   0  0  0  0  0  0
   13.3690   10.2194    0.5404 H   0  0  0  0  0  0
   11.8836   11.4976   -1.0301 H   0  0  0  0  0  0
    9.7007   10.5068   -1.7459 H   0  0  0  0  0  0
    8.3668    8.8167   -2.6158 H   0  0  0  0  0  0
    7.2783    7.5836   -1.9814 H   0  0  0  0  0  0
    7.3196    9.1927   -1.2184 H   0  0  0  0  0  0
    6.4053    7.0906    0.3644 H   0  0  0  0  0  0
    4.7003    5.3323    0.3683 H   0  0  0  0  0  0
   -2.7371    0.0714   -0.7380 H   0  0  0  0  0  0
   -2.7262    0.1082    1.0182 H   0  0  0  0  0  0
   -4.3257    1.8079    0.0968 H   0  0  0  0  0  0
   -3.0244    2.6081    0.9728 H   0  0  0  0  0  0
   -3.0151    2.5791   -0.7914 H   0  0  0  0  0  0
  1  2  1  0  0  0
  1 30  1  0  0  0
  1 31  1  0  0  0
  1 32  1  0  0  0
  2  3  1  0  0  0
  2 33  1  0  0  0
  2 34  1  0  0  0
  3  4  1  0  0  0
  3 35  1  0  0  0
  4  5  1  0  0  0
  4 26  2  0  0  0
  5  6  1  0  0  0
  5 36  1  0  0  0
  6  7  2  0  0  0
  7  8  1  0  0  0
  7 37  1  0  0  0
  8  9  2  0  0  0
  8 38  1  0  0  0
  9 10  1  0  0  0
  9 39  1  0  0  0
 10 25  1  0  0  0
 10 11  2  0  0  0
 11 12  1  0  0  0
 11 40  1  0  0  0
 12 13  2  0  0  0
 12 41  1  0  0  0
 13 14  1  0  0  0
 13 24  1  0  0  0
 14 22  1  0  0  0
 14 15  2  0  0  0
 15 16  1  0  0  0
 15 42  1  0  0  0
 16 21  1  0  0  0
 16 17  1  0  0  0
 17 18  2  0  0  0
 17 43  1  0  0  0
 18 19  1  0  0  0
 18 44  1  0  0  0
 19 20  2  0  0  0
 19 45  1  0  0  0
 20 21  1  0  0  0
 20 46  1  0  0  0
 21 22  2  0  0  0
 22 23  1  0  0  0
 23 47  1  0  0  0
 23 48  1  0  0  0
 23 49  1  0  0  0
 24 25  2  0  0  0
 24 50  1  0  0  0
 25 51  1  0  0  0
 26 29  1  0  0  0
 26 27  1  0  0  0
 27 28  1  0  0  0
 27 52  1  0  0  0
 27 53  1  0  0  0
 28 54  1  0  0  0
 28 55  1  0  0  0
 28 56  1  0  0  0
M  CHG  2  22   1  26   1
M  END
$$$$
93
                    3D
 Schrodinger Suite 2021-2.
 57 59  0  0  1  0            999 V2000
   -2.8003    1.7348   -2.0987 C   0  0  0  0  0  0
   -3.0291    1.1482   -0.7351 C   0  0  0  0  0  0
   -4.2518    0.7876   -0.3869 N   0  0  0  0  0  0
   -4.1498    0.2944    0.9167 O   0  0  0  0  0  0
   -2.8531    0.3746    1.3072 C   0  0  0  0  0  0
   -2.5527   -0.0925    2.6915 C   0  0  0  0  0  0
   -2.0840    0.8953    0.3018 C   0  0  0  0  0  0
   -0.6016    1.1518    0.2834 C   0  0  0  0  0  0
    0.0704    0.1487   -0.5635 N   0  3  0  0  0  0
    1.5417    0.2436   -0.5663 C   0  0  0  0  0  0
    2.1475   -0.7744   -1.5218 C   0  0  0  0  0  0
    2.4482   -0.3653   -2.8391 C   0  0  0  0  0  0
    3.0360   -1.2613   -3.7504 C   0  0  0  0  0  0
    3.3320   -2.5757   -3.3492 C   0  0  0  0  0  0
    3.0329   -2.9947   -2.0398 C   0  0  0  0  0  0
    2.4319   -2.1063   -1.1177 C   0  0  0  0  0  0
    2.1133   -2.5472    0.1788 N   0  0  0  0  0  0
    3.2267   -3.1318    0.9192 C   0  0  0  0  0  0
    0.7560   -3.0774    0.3312 C   0  0  2  0  0  0
    0.2008   -2.8460    1.7474 C   0  0  0  0  0  0
   -1.2427   -3.3639    1.8586 C   0  0  0  0  0  0
   -1.3247   -4.8004    1.4937 N   0  3  1  0  0  0
   -2.6794   -5.3557    1.7020 C   0  0  0  0  0  0
   -0.8129   -5.0592    0.1243 C   0  0  0  0  0  0
    0.6384   -4.5723   -0.0288 C   0  0  0  0  0  0
   -0.1834   -0.7719   -0.2363 H   0  0  0  0  0  0
   -0.2599    0.2567   -1.5119 H   0  0  0  0  0  0
   -0.7130   -5.2948    2.1279 H   0  0  0  0  0  0
   -1.7532    1.9939   -2.2537 H   0  0  0  0  0  0
   -3.0857    1.0318   -2.8817 H   0  0  0  0  0  0
   -3.3875    2.6429   -2.2374 H   0  0  0  0  0  0
   -1.4885   -0.2853    2.8226 H   0  0  0  0  0  0
   -2.8509    0.6590    3.4224 H   0  0  0  0  0  0
   -3.0919   -1.0128    2.9162 H   0  0  0  0  0  0
   -0.3783    2.1484   -0.0994 H   0  0  0  0  0  0
   -0.1811    1.1056    1.2886 H   0  0  0  0  0  0
    1.8382    1.2487   -0.8697 H   0  0  0  0  0  0
    1.9276    0.0978    0.4435 H   0  0  0  0  0  0
    2.2340    0.6450   -3.1564 H   0  0  0  0  0  0
    3.2648   -0.9385   -4.7556 H   0  0  0  0  0  0
    3.7869   -3.2640   -4.0462 H   0  0  0  0  0  0
    3.2597   -4.0109   -1.7518 H   0  0  0  0  0  0
    4.1475   -2.5777    0.7314 H   0  0  0  0  0  0
    3.0386   -3.0988    1.9921 H   0  0  0  0  0  0
    3.3930   -4.1704    0.6329 H   0  0  0  0  0  0
    0.1125   -2.5328   -0.3608 H   0  0  0  0  0  0
    0.8193   -3.3538    2.4883 H   0  0  0  0  0  0
    0.2325   -1.7839    1.9915 H   0  0  0  0  0  0
   -1.6008   -3.2255    2.8796 H   0  0  0  0  0  0
   -1.9010   -2.7838    1.2096 H   0  0  0  0  0  0
   -3.4066   -4.8705    1.0496 H   0  0  0  0  0  0
   -2.6934   -6.4262    1.4939 H   0  0  0  0  0  0
   -2.9990   -5.2144    2.7351 H   0  0  0  0  0  0
   -0.8617   -6.1281   -0.0875 H   0  0  0  0  0  0
   -1.4539   -4.5620   -0.6057 H   0  0  0  0  0  0
    0.9694   -4.7460   -1.0528 H   0  0  0  0  0  0
    1.2856   -5.1709    0.6134 H   0  0  0  0  0  0
  1  2  1  0  0  0
  1 29  1  0  0  0
  1 30  1  0  0  0
  1 31  1  0  0  0
  2  7  1  0  0  0
  2  3  2  0  0  0
  3  4  1  0  0  0
  4  5  1  0  0  0
  5  6  1  0  0  0
  5  7  2  0  0  0
  6 32  1  0  0  0
  6 33  1  0  0  0
  6 34  1  0  0  0
  7  8  1  0  0  0
  8  9  1  0  0  0
  8 35  1  0  0  0
  8 36  1  0  0  0
  9 26  1  0  0  0
  9 27  1  0  0  0
  9 10  1  0  0  0
 10 11  1  0  0  0
 10 37  1  0  0  0
 10 38  1  0  0  0
 11 16  1  0  0  0
 11 12  2  0  0  0
 12 13  1  0  0  0
 12 39  1  0  0  0
 13 14  2  0  0  0
 13 40  1  0  0  0
 14 15  1  0  0  0
 14 41  1  0  0  0
 15 16  2  0  0  0
 15 42  1  0  0  0
 16 17  1  0  0  0
 17 18  1  0  0  0
 17 19  1  0  0  0
 18 43  1  0  0  0
 18 44  1  0  0  0
 18 45  1  0  0  0
 19 25  1  0  0  0
 19 20  1  0  0  0
 19 46  1  0  0  0
 20 21  1  0  0  0
 20 47  1  0  0  0
 20 48  1  0  0  0
 21 22  1  0  0  0
 21 49  1  0  0  0
 21 50  1  0  0  0
 22 28  1  0  0  0
 22 23  1  0  0  0
 22 24  1  0  0  0
 23 51  1  0  0  0
 23 52  1  0  0  0
 23 53  1  0  0  0
 24 25  1  0  0  0
 24 54  1  0  0  0
 24 55  1  0  0  0
 25 56  1  0  0  0
 25 57  1  0  0  0
M  CHG  2   9   1  22   1
M  END
$$$$
94
                    3D
 Schrodinger Suite 2021-2.
 51 54  0  0  1  0            999 V2000
   -1.3828    3.2706    1.8820 C   0  0  0  0  0  0
   -1.5778    1.9902    1.0643 C   0  0  0  0  0  0
   -0.3052    1.5419    0.4666 N   0  3  0  0  0  0
   -0.4170    0.2984   -0.3204 C   0  0  0  0  0  0
    0.9290   -0.0924   -0.9165 C   0  0  1  0  0  0
    1.9964   -0.7343   -0.0232 C   0  0  0  0  0  0
    2.3430   -1.5468   -1.1800 N   0  0  0  0  0  0
    2.7276   -2.8941   -0.9169 C   0  0  0  0  0  0
    1.9888   -3.8206   -0.1381 C   0  0  0  0  0  0
    0.8106   -3.4619    0.4272 F   0  0  0  0  0  0
    2.4531   -5.1265    0.0805 C   0  0  0  0  0  0
    3.6662   -5.5664   -0.4840 C   0  0  0  0  0  0
    4.1439   -6.9568   -0.1990 C   0  0  0  0  0  0
    3.4489   -7.7409    0.4490 O   0  0  0  0  0  0
    5.4908   -7.3315   -0.7224 C   0  0  0  0  0  0
    6.1957   -8.7055   -0.3899 C   0  0  0  0  0  0
    7.2370   -8.9661   -1.0337 O   0  0  0  0  0  0
    5.6810   -9.4185    0.4999 O   0  5  0  0  0  0
    6.1154   -6.4226   -1.5030 C   0  0  0  0  0  0
    5.6154   -5.1809   -1.8708 N   0  0  0  0  0  0
    6.2530   -4.4227   -2.9457 C   0  0  0  0  0  0
    5.5441   -4.2512   -4.2743 C   0  0  0  0  0  0
    6.7644   -5.1292   -4.1865 C   0  0  0  0  0  0
    4.4218   -4.6817   -1.2957 C   0  0  0  0  0  0
    3.9454   -3.3511   -1.4775 C   0  0  0  0  0  0
    4.6653   -2.4485   -2.1886 F   0  0  0  0  0  0
    1.0254   -1.3596   -1.7773 C   0  0  2  0  0  0
    1.1225   -1.2715   -3.2958 C   0  0  0  0  0  0
    0.0415    2.2736   -0.1373 H   0  0  0  0  0  0
    0.3631    1.3914    1.2090 H   0  0  0  0  0  0
    1.3674    0.7460   -1.4644 H   0  0  0  0  0  0
    0.3107   -2.1115   -1.4421 H   0  0  0  0  0  0
   -2.3270    3.5991    2.3173 H   0  0  0  0  0  0
   -0.6779    3.1143    2.6993 H   0  0  0  0  0  0
   -1.0038    4.0830    1.2608 H   0  0  0  0  0  0
   -1.9766    1.2011    1.7030 H   0  0  0  0  0  0
   -2.3072    2.1647    0.2723 H   0  0  0  0  0  0
   -0.7992   -0.4999    0.3173 H   0  0  0  0  0  0
   -1.1491    0.4465   -1.1151 H   0  0  0  0  0  0
    2.7888   -0.0516    0.2848 H   0  0  0  0  0  0
    1.5827   -1.2867    0.8201 H   0  0  0  0  0  0
    1.8601   -5.7876    0.6961 H   0  0  0  0  0  0
    7.1017   -6.6128   -1.9017 H   0  0  0  0  0  0
    6.8507   -3.5987   -2.5606 H   0  0  0  0  0  0
    4.5823   -4.7433   -4.4047 H   0  0  0  0  0  0
    5.6512   -3.2941   -4.7803 H   0  0  0  0  0  0
    7.6810   -4.7533   -4.6363 H   0  0  0  0  0  0
    6.6070   -6.2020   -4.2791 H   0  0  0  0  0  0
    0.1517   -1.0468   -3.7376 H   0  0  0  0  0  0
    1.8158   -0.4911   -3.6116 H   0  0  0  0  0  0
    1.4677   -2.2123   -3.7258 H   0  0  0  0  0  0
  1  2  1  0  0  0
  1 33  1  0  0  0
  1 34  1  0  0  0
  1 35  1  0  0  0
  2  3  1  0  0  0
  2 36  1  0  0  0
  2 37  1  0  0  0
  3 29  1  0  0  0
  3 30  1  0  0  0
  3  4  1  0  0  0
  4  5  1  0  0  0
  4 38  1  0  0  0
  4 39  1  0  0  0
  5 31  1  0  0  0
  5 27  1  0  0  0
  5  6  1  0  0  0
  6  7  1  0  0  0
  6 40  1  0  0  0
  6 41  1  0  0  0
  7  8  1  0  0  0
  7 27  1  0  0  0
  8 25  1  0  0  0
  8  9  2  0  0  0
  9 10  1  0  0  0
  9 11  1  0  0  0
 11 12  2  0  0  0
 11 42  1  0  0  0
 12 24  1  0  0  0
 12 13  1  0  0  0
 13 14  2  0  0  0
 13 15  1  0  0  0
 15 16  1  0  0  0
 15 19  2  0  0  0
 16 17  2  0  0  0
 16 18  1  0  0  0
 19 20  1  0  0  0
 19 43  1  0  0  0
 20 21  1  0  0  0
 20 24  1  0  0  0
 21 23  1  0  0  0
 21 22  1  0  0  0
 21 44  1  0  0  0
 22 23  1  0  0  0
 22 45  1  0  0  0
 22 46  1  0  0  0
 23 47  1  0  0  0
 23 48  1  0  0  0
 24 25  2  0  0  0
 25 26  1  0  0  0
 27 32  1  0  0  0
 27 28  1  0  0  0
 28 49  1  0  0  0
 28 50  1  0  0  0
 28 51  1  0  0  0
M  CHG  2   3   1  18  -1
M  END
$$$$
95
                    3D
 Schrodinger Suite 2021-2.
 55 58  0  0  1  0            999 V2000
   -1.4006    3.5565    1.5711 C   0  0  0  0  0  0
   -1.3476    2.1818    0.8958 C   0  0  0  0  0  0
    0.0872    1.6593    0.7428 C   0  0  0  0  0  0
    0.1464    0.2803    0.0732 C   0  0  0  0  0  0
    1.5727   -0.1200   -0.1540 C   0  0  0  0  0  0
    2.1563   -0.0191   -1.3610 N   0  3  0  0  0  0
    3.5422   -0.4701   -1.2831 C   0  0  0  0  0  0
    3.9636   -1.5041   -2.3340 C   0  0  0  0  0  0
    5.2204   -0.6613   -2.6010 C   0  0  0  0  0  0
    4.5844    0.5094   -1.8360 C   0  0  0  0  0  0
    3.6822   -0.8709    0.1765 C   0  0  0  0  0  0
    4.6710   -1.3328    0.7439 O   0  0  0  0  0  0
    2.4186   -0.6010    0.7861 N   0  0  0  0  0  0
    2.1448   -0.8138    2.2207 C   0  0  0  0  0  0
    2.8417    0.1676    3.1545 C   0  0  0  0  0  0
    3.1789    1.4752    2.7394 C   0  0  0  0  0  0
    3.8289    2.3558    3.6240 C   0  0  0  0  0  0
    4.1618    1.9479    4.9333 C   0  0  0  0  0  0
    4.8545    2.8663    5.8556 C   0  0  0  0  0  0
    4.0985    3.3613    6.9424 C   0  0  0  0  0  0
    4.6447    4.2727    7.8619 C   0  0  0  0  0  0
    5.9689    4.7080    7.7045 C   0  0  0  0  0  0
    6.7408    4.2222    6.6349 C   0  0  0  0  0  0
    6.2107    3.2945    5.7042 C   0  0  0  0  0  0
    7.1191    2.7947    4.6015 C   0  0  0  0  0  0
    8.1452    3.4574    4.3291 O   0  0  0  0  0  0
    6.8517    1.7316    3.9990 O   0  5  0  0  0  0
    3.8069    0.6472    5.3490 C   0  0  0  0  0  0
    3.1516   -0.2353    4.4692 C   0  0  0  0  0  0
    1.7181    0.3224   -2.2046 H   0  0  0  0  0  0
   -2.4301    3.9004    1.6723 H   0  0  0  0  0  0
   -0.9620    3.5226    2.5689 H   0  0  0  0  0  0
   -0.8562    4.3021    0.9908 H   0  0  0  0  0  0
   -1.9355    1.4724    1.4796 H   0  0  0  0  0  0
   -1.8229    2.2443   -0.0838 H   0  0  0  0  0  0
    0.6753    2.3670    0.1575 H   0  0  0  0  0  0
    0.5522    1.6080    1.7260 H   0  0  0  0  0  0
   -0.3613   -0.4731    0.6759 H   0  0  0  0  0  0
   -0.3710    0.3086   -0.8869 H   0  0  0  0  0  0
    4.1858   -2.4973   -1.9409 H   0  0  0  0  0  0
    3.2834   -1.5577   -3.1855 H   0  0  0  0  0  0
    6.1059   -1.0570   -2.1010 H   0  0  0  0  0  0
    5.4113   -0.4589   -3.6555 H   0  0  0  0  0  0
    4.1563    1.2752   -2.4846 H   0  0  0  0  0  0
    5.2473    0.9483   -1.0885 H   0  0  0  0  0  0
    1.0745   -0.7678    2.4131 H   0  0  0  0  0  0
    2.4519   -1.8283    2.4789 H   0  0  0  0  0  0
    2.9502    1.8162    1.7411 H   0  0  0  0  0  0
    4.0884    3.3499    3.2906 H   0  0  0  0  0  0
    3.0737    3.0437    7.0690 H   0  0  0  0  0  0
    4.0466    4.6403    8.6825 H   0  0  0  0  0  0
    6.3958    5.4101    8.4053 H   0  0  0  0  0  0
    7.7614    4.5653    6.5465 H   0  0  0  0  0  0
    4.0472    0.3195    6.3498 H   0  0  0  0  0  0
    2.8957   -1.2287    4.8073 H   0  0  0  0  0  0
  1  2  1  0  0  0
  1 31  1  0  0  0
  1 32  1  0  0  0
  1 33  1  0  0  0
  2  3  1  0  0  0
  2 34  1  0  0  0
  2 35  1  0  0  0
  3  4  1  0  0  0
  3 36  1  0  0  0
  3 37  1  0  0  0
  4  5  1  0  0  0
  4 38  1  0  0  0
  4 39  1  0  0  0
  5 13  1  0  0  0
  5  6  2  0  0  0
  6 30  1  0  0  0
  6  7  1  0  0  0
  7 10  1  0  0  0
  7  8  1  0  0  0
  7 11  1  0  0  0
  8  9  1  0  0  0
  8 40  1  0  0  0
  8 41  1  0  0  0
  9 10  1  0  0  0
  9 42  1  0  0  0
  9 43  1  0  0  0
 10 44  1  0  0  0
 10 45  1  0  0  0
 11 12  2  0  0  0
 11 13  1  0  0  0
 13 14  1  0  0  0
 14 15  1  0  0  0
 14 46  1  0  0  0
 14 47  1  0  0  0
 15 29  1  0  0  0
 15 16  2  0  0  0
 16 17  1  0  0  0
 16 48  1  0  0  0
 17 18  2  0  0  0
 17 49  1  0  0  0
 18 19  1  0  0  0
 18 28  1  0  0  0
 19 24  1  0  0  0
 19 20  2  0  0  0
 20 21  1  0  0  0
 20 50  1  0  0  0
 21 22  2  0  0  0
 21 51  1  0  0  0
 22 23  1  0  0  0
 22 52  1  0  0  0
 23 24  2  0  0  0
 23 53  1  0  0  0
 24 25  1  0  0  0
 25 26  2  0  0  0
 25 27  1  0  0  0
 28 29  2  0  0  0
 28 54  1  0  0  0
 29 55  1  0  0  0
M  CHG  2   6   1  27  -1
M  END
$$$$
96
                    3D
 Schrodinger Suite 2021-2.
 49 50  0  0  1  0            999 V2000
   -5.2043    4.0482   -3.1478 C   0  0  0  0  0  0
   -4.2148    3.1599   -2.9729 C   0  0  0  0  0  0
   -4.2027    2.0838   -1.9015 C   0  0  0  0  0  0
   -2.8997    2.0035   -1.1981 N   0  0  0  0  0  0
   -2.2438    0.8063   -1.1783 C   0  0  0  0  0  0
   -2.8066   -0.2606   -1.4358 O   0  0  0  0  0  0
   -0.8086    0.9057   -0.8864 C   0  0  0  0  0  0
   -0.0777   -0.2207   -0.7363 C   0  0  0  0  0  0
    1.4174   -0.2976   -0.4642 C   0  0  0  0  0  0
    1.7407   -0.8797    0.9215 C   0  0  0  0  0  0
    1.3825   -2.3676    1.0714 C   0  0  0  0  0  0
    1.7786   -2.9297    2.4410 C   0  0  0  0  0  0
   -0.1964    2.1610   -0.8298 N   0  0  0  0  0  0
   -0.8478    3.3306   -0.7339 C   0  0  0  0  0  0
   -0.2286    4.3935   -0.6921 O   0  0  0  0  0  0
   -2.3057    3.1817   -0.6541 C   0  0  0  0  0  0
   -2.9848    4.2211   -0.1003 C   0  0  0  0  0  0
   -4.3893    4.3001    0.3268 C   0  0  0  0  0  0
   -4.9820    3.2744    1.0933 C   0  0  0  0  0  0
   -6.3233    3.3805    1.5074 C   0  0  0  0  0  0
   -7.0934    4.5142    1.1778 C   0  0  0  0  0  0
   -8.3987    4.5365    1.6204 O   0  0  0  0  0  0
   -9.1937    5.6686    1.2995 C   0  0  0  0  0  0
   -6.4893    5.5521    0.4253 C   0  0  0  0  0  0
   -5.1475    5.4450    0.0118 C   0  0  0  0  0  0
    0.8132    2.1728   -0.8269 H   0  0  0  0  0  0
   -6.0762    4.0488   -2.5099 H   0  0  0  0  0  0
   -5.1542    4.7875   -3.9333 H   0  0  0  0  0  0
   -3.3618    3.1858   -3.6353 H   0  0  0  0  0  0
   -5.0358    2.2077   -1.2160 H   0  0  0  0  0  0
   -4.4382    1.1669   -2.4427 H   0  0  0  0  0  0
   -0.5625   -1.1841   -0.8045 H   0  0  0  0  0  0
    1.8786   -0.9061   -1.2427 H   0  0  0  0  0  0
    1.8746    0.6881   -0.5463 H   0  0  0  0  0  0
    2.8081   -0.7557    1.1072 H   0  0  0  0  0  0
    1.2313   -0.2962    1.6898 H   0  0  0  0  0  0
    0.3117   -2.5118    0.9281 H   0  0  0  0  0  0
    1.8797   -2.9436    0.2902 H   0  0  0  0  0  0
    1.5201   -3.9860    2.5176 H   0  0  0  0  0  0
    2.8520   -2.8373    2.6090 H   0  0  0  0  0  0
    1.2656   -2.4023    3.2458 H   0  0  0  0  0  0
   -2.4170    5.0754    0.2420 H   0  0  0  0  0  0
   -4.4097    2.3983    1.3618 H   0  0  0  0  0  0
   -6.7658    2.5829    2.0861 H   0  0  0  0  0  0
  -10.1939    5.5338    1.7107 H   0  0  0  0  0  0
   -8.7801    6.5813    1.7306 H   0  0  0  0  0  0
   -9.2955    5.7920    0.2204 H   0  0  0  0  0  0
   -7.0338    6.4432    0.1523 H   0  0  0  0  0  0
   -4.7021    6.2461   -0.5599 H   0  0  0  0  0  0
  1  2  2  0  0  0
  1 27  1  0  0  0
  1 28  1  0  0  0
  2  3  1  0  0  0
  2 29  1  0  0  0
  3  4  1  0  0  0
  3 30  1  0  0  0
  3 31  1  0  0  0
  4 16  1  0  0  0
  4  5  1  0  0  0
  5  6  2  0  0  0
  5  7  1  0  0  0
  7  8  2  0  0  0
  7 13  1  0  0  0
  8  9  1  0  0  0
  8 32  1  0  0  0
  9 10  1  0  0  0
  9 33  1  0  0  0
  9 34  1  0  0  0
 10 11  1  0  0  0
 10 35  1  0  0  0
 10 36  1  0  0  0
 11 12  1  0  0  0
 11 37  1  0  0  0
 11 38  1  0  0  0
 12 39  1  0  0  0
 12 40  1  0  0  0
 12 41  1  0  0  0
 13 26  1  0  0  0
 13 14  1  0  0  0
 14 15  2  0  0  0
 14 16  1  0  0  0
 16 17  2  0  0  0
 17 18  1  0  0  0
 17 42  1  0  0  0
 18 25  1  0  0  0
 18 19  2  0  0  0
 19 20  1  0  0  0
 19 43  1  0  0  0
 20 21  2  0  0  0
 20 44  1  0  0  0
 21 22  1  0  0  0
 21 24  1  0  0  0
 22 23  1  0  0  0
 23 45  1  0  0  0
 23 46  1  0  0  0
 23 47  1  0  0  0
 24 25  2  0  0  0
 24 48  1  0  0  0
 25 49  1  0  0  0
M  END
$$$$
97
                    3D
 Schrodinger Suite 2021-2.
 49 50  0  0  1  0            999 V2000
   -4.8625    5.1846    0.4402 C   0  0  0  0  0  0
   -3.6013    4.5966   -0.2020 C   0  0  0  0  0  0
   -3.2348    3.2197    0.3699 C   0  0  0  0  0  0
   -1.9714    2.6311   -0.2745 C   0  0  0  0  0  0
   -1.6051    1.2532    0.2957 C   0  0  0  0  0  0
   -0.3543    0.6565   -0.3654 C   0  0  0  0  0  0
    0.0058   -0.7273    0.1930 C   0  0  0  0  0  0
    1.2487   -1.3255   -0.4834 C   0  0  0  0  0  0
    1.6550   -2.9761    0.1600 S   0  0  0  0  0  0
    2.4684   -2.6406    1.7309 C   0  0  0  0  0  0
    2.9169   -3.4997    2.5428 N   0  0  0  0  0  0
    3.5778   -2.7621    3.5914 C   0  0  1  0  0  0
    4.9545   -2.8023    3.3304 O   0  0  0  0  0  0
    5.8312   -1.8729    3.9600 C   0  0  2  0  0  0
    5.9188   -2.1273    5.4803 C   0  0  0  0  0  0
    6.7581   -3.2324    5.7374 O   0  0  0  0  0  0
    5.3905   -0.4448    3.5870 C   0  0  1  0  0  0
    5.6924   -0.2116    2.2252 O   0  0  0  0  0  0
    3.9018   -0.1900    3.8550 C   0  0  2  0  0  0
    3.6961    0.0613    5.2318 O   0  0  0  0  0  0
    2.9838   -1.3457    3.4162 C   0  0  1  0  0  0
    2.5742   -1.3268    2.0710 O   0  0  0  0  0  0
    3.3590   -3.1891    4.5704 H   0  0  0  0  0  0
    6.8280   -2.0286    3.5434 H   0  0  0  0  0  0
    5.9900    0.2777    4.1426 H   0  0  0  0  0  0
    3.5880    0.7234    3.3481 H   0  0  0  0  0  0
    2.0575   -1.3005    3.9951 H   0  0  0  0  0  0
   -5.0988    6.1585    0.0111 H   0  0  0  0  0  0
   -5.7240    4.5344    0.2840 H   0  0  0  0  0  0
   -4.7316    5.3171    1.5146 H   0  0  0  0  0  0
   -3.7512    4.5171   -1.2793 H   0  0  0  0  0  0
   -2.7696    5.2864   -0.0560 H   0  0  0  0  0  0
   -3.0877    3.3028    1.4474 H   0  0  0  0  0  0
   -4.0698    2.5331    0.2244 H   0  0  0  0  0  0
   -2.1193    2.5504   -1.3522 H   0  0  0  0  0  0
   -1.1361    3.3172   -0.1282 H   0  0  0  0  0  0
   -1.4427    1.3369    1.3710 H   0  0  0  0  0  0
   -2.4454    0.5708    0.1626 H   0  0  0  0  0  0
   -0.5147    0.5812   -1.4416 H   0  0  0  0  0  0
    0.4886    1.3344   -0.2255 H   0  0  0  0  0  0
    0.1679   -0.6502    1.2683 H   0  0  0  0  0  0
   -0.8384   -1.4044    0.0584 H   0  0  0  0  0  0
    1.0656   -1.4242   -1.5536 H   0  0  0  0  0  0
    2.1111   -0.6668   -0.3771 H   0  0  0  0  0  0
    6.3656   -1.2660    5.9772 H   0  0  0  0  0  0
    4.9443   -2.2844    5.9399 H   0  0  0  0  0  0
    6.3930   -3.9905    5.3065 H   0  0  0  0  0  0
    5.4538    0.6773    2.0119 H   0  0  0  0  0  0
    4.2051    0.8182    5.4789 H   0  0  0  0  0  0
  1  2  1  0  0  0
  1 28  1  0  0  0
  1 29  1  0  0  0
  1 30  1  0  0  0
  2  3  1  0  0  0
  2 31  1  0  0  0
  2 32  1  0  0  0
  3  4  1  0  0  0
  3 33  1  0  0  0
  3 34  1  0  0  0
  4  5  1  0  0  0
  4 35  1  0  0  0
  4 36  1  0  0  0
  5  6  1  0  0  0
  5 37  1  0  0  0
  5 38  1  0  0  0
  6  7  1  0  0  0
  6 39  1  0  0  0
  6 40  1  0  0  0
  7  8  1  0  0  0
  7 41  1  0  0  0
  7 42  1  0  0  0
  8  9  1  0  0  0
  8 43  1  0  0  0
  8 44  1  0  0  0
  9 10  1  0  0  0
 10 22  1  0  0  0
 10 11  2  0  0  0
 11 12  1  0  0  0
 12 23  1  0  0  0
 12 21  1  0  0  0
 12 13  1  0  0  0
 13 14  1  0  0  0
 14 24  1  0  0  0
 14 15  1  0  0  0
 14 17  1  0  0  0
 15 16  1  0  0  0
 15 45  1  0  0  0
 15 46  1  0  0  0
 16 47  1  0  0  0
 17 25  1  0  0  0
 17 18  1  0  0  0
 17 19  1  0  0  0
 18 48  1  0  0  0
 19 26  1  0  0  0
 19 20  1  0  0  0
 19 21  1  0  0  0
 20 49  1  0  0  0
 21 27  1  0  0  0
 21 22  1  0  0  0
M  END
$$$$
98
                    3D
 Schrodinger Suite 2021-2.
 45 47  0  0  1  0            999 V2000
   -2.8079    2.5373   -0.1606 C   0  0  0  0  0  0
   -2.1143    1.3139    0.0124 O   0  0  0  0  0  0
   -0.7204    1.4440   -0.2102 C   0  0  0  0  0  0
   -0.0517    0.0800   -0.0019 C   0  0  0  0  0  0
    1.4656    0.1347   -0.2195 C   0  0  0  0  0  0
    2.0590   -1.1847   -0.0030 N   0  0  2  0  0  0
    3.7784   -1.3280    0.0176 S   0  0  0  0  0  0
    4.1001   -2.7563    0.1608 O   0  0  0  0  0  0
    4.3058   -0.5527   -1.1163 O   0  0  0  0  0  0
    4.2097   -0.4873    1.5372 C   0  0  0  0  0  0
    4.0197   -1.1661    2.7691 C   0  0  0  0  0  0
    4.3424   -0.5287    3.9874 C   0  0  0  0  0  0
    4.8377    0.7840    3.8944 C   0  0  0  0  0  0
    5.0278    1.4780    2.7006 C   0  0  0  0  0  0
    4.7152    0.8366    1.4876 C   0  0  0  0  0  0
    5.5669    2.8534    3.0482 C   0  0  1  0  0  0
    4.6694    3.9945    2.5459 C   0  0  0  0  0  0
    5.6219    2.7795    4.5783 C   0  0  0  0  0  0
    5.9905    3.7118    5.2920 O   0  0  0  0  0  0
    5.2122    1.5749    4.9915 N   0  0  0  0  0  0
    5.1345    1.1008    6.3695 C   0  0  0  0  0  0
    5.1694   -0.4353    6.4124 C   0  0  0  0  0  0
    4.1880   -1.0624    5.4061 C   0  0  0  0  0  0
   -3.8712    2.3853    0.0247 H   0  0  0  0  0  0
   -2.4496    3.2961    0.5364 H   0  0  0  0  0  0
   -2.6942    2.9143   -1.1778 H   0  0  0  0  0  0
   -0.5355    1.8011   -1.2246 H   0  0  0  0  0  0
   -0.2992    2.1768    0.4802 H   0  0  0  0  0  0
   -0.2632   -0.2733    1.0081 H   0  0  0  0  0  0
   -0.4948   -0.6467   -0.6840 H   0  0  0  0  0  0
    1.6946    0.4669   -1.2326 H   0  0  0  0  0  0
    1.9161    0.8513    0.4675 H   0  0  0  0  0  0
    1.6335   -1.8955   -0.5977 H   0  0  0  0  0  0
    3.6216   -2.1699    2.7783 H   0  0  0  0  0  0
    4.8516    1.3506    0.5477 H   0  0  0  0  0  0
    6.5774    2.9550    2.6512 H   0  0  0  0  0  0
    3.6686    3.9358    2.9760 H   0  0  0  0  0  0
    5.0878    4.9677    2.8048 H   0  0  0  0  0  0
    4.5656    3.9600    1.4613 H   0  0  0  0  0  0
    5.9516    1.5108    6.9652 H   0  0  0  0  0  0
    4.2043    1.4655    6.8067 H   0  0  0  0  0  0
    6.1798   -0.7702    6.1735 H   0  0  0  0  0  0
    4.9580   -0.7917    7.4209 H   0  0  0  0  0  0
    3.1629   -0.8723    5.7257 H   0  0  0  0  0  0
    4.3140   -2.1454    5.3923 H   0  0  0  0  0  0
  1  2  1  0  0  0
  1 24  1  0  0  0
  1 25  1  0  0  0
  1 26  1  0  0  0
  2  3  1  0  0  0
  3  4  1  0  0  0
  3 27  1  0  0  0
  3 28  1  0  0  0
  4  5  1  0  0  0
  4 29  1  0  0  0
  4 30  1  0  0  0
  5  6  1  0  0  0
  5 31  1  0  0  0
  5 32  1  0  0  0
  6  7  1  0  0  0
  6 33  1  0  0  0
  7  8  2  0  0  0
  7  9  2  0  0  0
  7 10  1  0  0  0
 10 15  1  0  0  0
 10 11  2  0  0  0
 11 12  1  0  0  0
 11 34  1  0  0  0
 12 23  1  0  0  0
 12 13  2  0  0  0
 13 20  1  0  0  0
 13 14  1  0  0  0
 14 15  2  0  0  0
 14 16  1  0  0  0
 15 35  1  0  0  0
 16 17  1  0  0  0
 16 18  1  0  0  0
 16 36  1  0  0  0
 17 37  1  0  0  0
 17 38  1  0  0  0
 17 39  1  0  0  0
 18 19  2  0  0  0
 18 20  1  0  0  0
 20 21  1  0  0  0
 21 22  1  0  0  0
 21 40  1  0  0  0
 21 41  1  0  0  0
 22 23  1  0  0  0
 22 42  1  0  0  0
 22 43  1  0  0  0
 23 44  1  0  0  0
 23 45  1  0  0  0
M  END
$$$$
99
                    3D
 Schrodinger Suite 2021-2.
 67 70  0  0  1  0            999 V2000
   -2.6651    3.0778    0.1713 C   0  0  0  0  0  0
   -2.1206    1.6635    0.3990 C   0  0  0  0  0  0
   -0.6115    1.5678    0.1378 C   0  0  0  0  0  0
   -0.0667    0.1407    0.3304 C   0  0  0  0  0  0
    1.4681    0.0241    0.1546 C   0  0  2  0  0  0
    1.9081    0.5323   -1.1980 C   0  0  0  0  0  0
    1.7869   -0.1380   -2.3403 N   0  0  0  0  0  0
    2.3202    0.7122   -3.2854 N   0  0  0  0  0  0
    2.7247    1.8229   -2.7443 N   0  0  0  0  0  0
    2.4528    1.7413   -1.4165 N   0  0  0  0  0  0
    2.7896    2.8364   -0.5111 C   0  0  0  0  0  0
    2.3397    4.2193   -0.9930 C   0  0  0  0  0  0
    3.1661    5.1830   -0.1397 C   0  0  0  0  0  0
    4.4890    4.4566    0.1532 C   0  0  0  0  0  0
    4.2964    2.9965   -0.2843 C   0  0  0  0  0  0
    2.0081   -1.3744    0.2057 N   0  3  1  0  0  0
    3.4849   -1.4138    0.3852 C   0  0  0  0  0  0
    4.0230   -2.8475    0.2623 C   0  0  0  0  0  0
    3.3905   -3.7598    1.2538 N   0  3  2  0  0  0
    3.9971   -5.1321    1.2328 C   0  0  0  0  0  0
    3.1096   -6.2282    1.8824 C   0  0  0  0  0  0
    3.7853   -7.6091    1.8716 C   0  0  0  0  0  0
    5.1516   -7.5691    2.5661 C   0  0  0  0  0  0
    6.0511   -6.5065    1.9241 C   0  0  0  0  0  0
    5.3788   -5.1244    1.9356 C   0  0  0  0  0  0
    1.9086   -3.7106    1.1112 C   0  0  0  0  0  0
    1.3592   -2.2734    1.1959 C   0  0  0  0  0  0
    1.8121   -1.7719   -0.7027 H   0  0  0  0  0  0
    3.5902   -3.3846    2.1704 H   0  0  0  0  0  0
   -3.7371    3.1172    0.3658 H   0  0  0  0  0  0
   -2.1803    3.7983    0.8307 H   0  0  0  0  0  0
   -2.5021    3.4016   -0.8572 H   0  0  0  0  0  0
   -2.3368    1.3563    1.4228 H   0  0  0  0  0  0
   -2.6508    0.9671   -0.2517 H   0  0  0  0  0  0
   -0.4091    1.9111   -0.8773 H   0  0  0  0  0  0
   -0.0879    2.2520    0.8064 H   0  0  0  0  0  0
   -0.3482   -0.1895    1.3306 H   0  0  0  0  0  0
   -0.5687   -0.5242   -0.3742 H   0  0  0  0  0  0
    1.9494    0.5924    0.9496 H   0  0  0  0  0  0
    2.3131    2.6639    0.4527 H   0  0  0  0  0  0
    2.5870    4.3732   -2.0441 H   0  0  0  0  0  0
    1.2663    4.3741   -0.8780 H   0  0  0  0  0  0
    3.3193    6.1420   -0.6354 H   0  0  0  0  0  0
    2.6439    5.3799    0.7975 H   0  0  0  0  0  0
    5.3153    4.9112   -0.3943 H   0  0  0  0  0  0
    4.7301    4.5201    1.2149 H   0  0  0  0  0  0
    4.6783    2.2884    0.4516 H   0  0  0  0  0  0
    4.8428    2.8280   -1.2134 H   0  0  0  0  0  0
    3.9854   -0.7920   -0.3576 H   0  0  0  0  0  0
    3.7451   -1.0000    1.3611 H   0  0  0  0  0  0
    3.8425   -3.2240   -0.7462 H   0  0  0  0  0  0
    5.1031   -2.8172    0.3927 H   0  0  0  0  0  0
    4.1378   -5.4159    0.1882 H   0  0  0  0  0  0
    2.8699   -5.9534    2.9107 H   0  0  0  0  0  0
    2.1630   -6.3289    1.3513 H   0  0  0  0  0  0
    3.1427   -8.3410    2.3619 H   0  0  0  0  0  0
    3.9087   -7.9484    0.8422 H   0  0  0  0  0  0
    5.0203   -7.3501    3.6265 H   0  0  0  0  0  0
    5.6292   -8.5478    2.5076 H   0  0  0  0  0  0
    7.0035   -6.4607    2.4532 H   0  0  0  0  0  0
    6.2819   -6.7934    0.8974 H   0  0  0  0  0  0
    6.0617   -4.4195    1.4648 H   0  0  0  0  0  0
    5.2617   -4.7906    2.9677 H   0  0  0  0  0  0
    1.6204   -4.1658    0.1620 H   0  0  0  0  0  0
    1.4260   -4.2807    1.9044 H   0  0  0  0  0  0
    1.5017   -1.8721    2.2006 H   0  0  0  0  0  0
    0.2854   -2.3300    1.0208 H   0  0  0  0  0  0
  1  2  1  0  0  0
  1 30  1  0  0  0
  1 31  1  0  0  0
  1 32  1  0  0  0
  2  3  1  0  0  0
  2 33  1  0  0  0
  2 34  1  0  0  0
  3  4  1  0  0  0
  3 35  1  0  0  0
  3 36  1  0  0  0
  4  5  1  0  0  0
  4 37  1  0  0  0
  4 38  1  0  0  0
  5  6  1  0  0  0
  5 16  1  0  0  0
  5 39  1  0  0  0
  6 10  1  0  0  0
  6  7  2  0  0  0
  7  8  1  0  0  0
  8  9  2  0  0  0
  9 10  1  0  0  0
 10 11  1  0  0  0
 11 15  1  0  0  0
 11 12  1  0  0  0
 11 40  1  0  0  0
 12 13  1  0  0  0
 12 41  1  0  0  0
 12 42  1  0  0  0
 13 14  1  0  0  0
 13 43  1  0  0  0
 13 44  1  0  0  0
 14 15  1  0  0  0
 14 45  1  0  0  0
 14 46  1  0  0  0
 15 47  1  0  0  0
 15 48  1  0  0  0
 16 28  1  0  0  0
 16 27  1  0  0  0
 16 17  1  0  0  0
 17 18  1  0  0  0
 17 49  1  0  0  0
 17 50  1  0  0  0
 18 19  1  0  0  0
 18 51  1  0  0  0
 18 52  1  0  0  0
 19 29  1  0  0  0
 19 20  1  0  0  0
 19 26  1  0  0  0
 20 25  1  0  0  0
 20 21  1  0  0  0
 20 53  1  0  0  0
 21 22  1  0  0  0
 21 54  1  0  0  0
 21 55  1  0  0  0
 22 23  1  0  0  0
 22 56  1  0  0  0
 22 57  1  0  0  0
 23 24  1  0  0  0
 23 58  1  0  0  0
 23 59  1  0  0  0
 24 25  1  0  0  0
 24 60  1  0  0  0
 24 61  1  0  0  0
 25 62  1  0  0  0
 25 63  1  0  0  0
 26 27  1  0  0  0
 26 64  1  0  0  0
 26 65  1  0  0  0
 27 66  1  0  0  0
 27 67  1  0  0  0
M  CHG  2  16   1  19   1
M  END
$$$$
100
                    3D
 Schrodinger Suite 2021-2.
 53 54  0  0  1  0            999 V2000
   -8.3665    3.1077   -0.2856 C   0  0  0  0  0  0
   -6.8603    3.0781   -0.1274 C   0  0  0  0  0  0
   -6.2858    2.9389    1.1499 C   0  0  0  0  0  0
   -4.8865    2.9157    1.2936 C   0  0  0  0  0  0
   -4.0424    3.0382    0.1672 C   0  0  0  0  0  0
   -2.5313    2.9839    0.3686 C   0  0  2  0  0  0
   -2.0243    1.5275    0.3536 C   0  0  0  0  0  0
   -0.5565    1.4748    0.5537 N   0  3  2  0  0  0
   -0.0308    0.0883    0.4866 C   0  0  0  0  0  0
    1.4764    0.0424    0.1882 C   0  0  0  0  0  0
    1.9908   -1.3921    0.0150 C   0  0  0  0  0  0
    3.8017   -1.3932   -0.3406 S   0  0  0  0  0  0
    3.9942   -0.7666   -1.6572 O   0  0  0  0  0  0
    4.4846   -0.8332    0.8355 O   0  0  0  0  0  0
    4.2227   -3.1945   -0.4715 C   0  0  0  0  0  0
    3.4844   -3.8592   -1.6428 C   0  0  0  0  0  0
    3.9856   -3.9238    0.8594 C   0  0  0  0  0  0
   -0.1787    2.1938    1.7950 C   0  0  0  0  0  0
   -0.7358    3.6257    1.7748 C   0  0  0  0  0  0
   -2.1467    3.5864    1.6019 O   0  0  0  0  0  0
   -4.6221    3.1664   -1.1226 C   0  0  0  0  0  0
   -3.7692    3.2796   -2.3752 C   0  0  0  0  0  0
   -6.0271    3.1918   -1.2574 C   0  0  0  0  0  0
   -0.1466    1.9801   -0.2189 H   0  0  0  0  0  0
   -8.8507    2.5168    0.4925 H   0  0  0  0  0  0
   -8.7316    4.1326   -0.2164 H   0  0  0  0  0  0
   -8.6645    2.7005   -1.2522 H   0  0  0  0  0  0
   -6.9156    2.8475    2.0228 H   0  0  0  0  0  0
   -4.4638    2.7998    2.2809 H   0  0  0  0  0  0
   -2.0490    3.5485   -0.4299 H   0  0  0  0  0  0
   -2.5175    0.9481    1.1362 H   0  0  0  0  0  0
   -2.2789    1.0590   -0.5976 H   0  0  0  0  0  0
   -0.2594   -0.4419    1.4124 H   0  0  0  0  0  0
   -0.5480   -0.4468   -0.3111 H   0  0  0  0  0  0
    1.6859    0.6122   -0.7178 H   0  0  0  0  0  0
    2.0362    0.5203    0.9913 H   0  0  0  0  0  0
    1.8134   -1.9703    0.9209 H   0  0  0  0  0  0
    1.4759   -1.8859   -0.8084 H   0  0  0  0  0  0
    5.2913   -3.2300   -0.6862 H   0  0  0  0  0  0
    3.8240   -4.8858   -1.7809 H   0  0  0  0  0  0
    2.4083   -3.8927   -1.4756 H   0  0  0  0  0  0
    3.6634   -3.3268   -2.5771 H   0  0  0  0  0  0
    4.3530   -4.9489    0.8093 H   0  0  0  0  0  0
    4.5063   -3.4299    1.6801 H   0  0  0  0  0  0
    2.9271   -3.9704    1.1127 H   0  0  0  0  0  0
   -0.5661    1.6575    2.6628 H   0  0  0  0  0  0
    0.9048    2.2337    1.9010 H   0  0  0  0  0  0
   -0.5101    4.1292    2.7149 H   0  0  0  0  0  0
   -0.2737    4.2136    0.9800 H   0  0  0  0  0  0
   -4.3799    3.2281   -3.2771 H   0  0  0  0  0  0
   -3.2357    4.2301   -2.3873 H   0  0  0  0  0  0
   -3.0415    2.4700   -2.4259 H   0  0  0  0  0  0
   -6.4724    3.2972   -2.2363 H   0  0  0  0  0  0
  1  2  1  0  0  0
  1 25  1  0  0  0
  1 26  1  0  0  0
  1 27  1  0  0  0
  2 23  1  0  0  0
  2  3  2  0  0  0
  3  4  1  0  0  0
  3 28  1  0  0  0
  4  5  2  0  0  0
  4 29  1  0  0  0
  5  6  1  0  0  0
  5 21  1  0  0  0
  6 20  1  0  0  0
  6  7  1  0  0  0
  6 30  1  0  0  0
  7  8  1  0  0  0
  7 31  1  0  0  0
  7 32  1  0  0  0
  8 24  1  0  0  0
  8  9  1  0  0  0
  8 18  1  0  0  0
  9 10  1  0  0  0
  9 33  1  0  0  0
  9 34  1  0  0  0
 10 11  1  0  0  0
 10 35  1  0  0  0
 10 36  1  0  0  0
 11 12  1  0  0  0
 11 37  1  0  0  0
 11 38  1  0  0  0
 12 13  2  0  0  0
 12 14  2  0  0  0
 12 15  1  0  0  0
 15 16  1  0  0  0
 15 17  1  0  0  0
 15 39  1  0  0  0
 16 40  1  0  0  0
 16 41  1  0  0  0
 16 42  1  0  0  0
 17 43  1  0  0  0
 17 44  1  0  0  0
 17 45  1  0  0  0
 18 19  1  0  0  0
 18 46  1  0  0  0
 18 47  1  0  0  0
 19 20  1  0  0  0
 19 48  1  0  0  0
 19 49  1  0  0  0
 21 22  1  0  0  0
 21 23  2  0  0  0
 22 50  1  0  0  0
 22 51  1  0  0  0
 22 52  1  0  0  0
 23 53  1  0  0  0
M  CHG  1   8   1
M  END
$$$$
101
                    3D
 Schrodinger Suite 2021-2.
 52 55  0  0  1  0            999 V2000
   -4.3339    0.6262    3.7522 O   0  0  0  0  0  0
   -4.6908   -0.2498    2.7036 C   0  0  0  0  0  0
   -4.1975    0.3092    1.3581 C   0  0  0  0  0  0
   -2.7149    0.3544    1.2736 N   0  3  1  0  0  0
   -2.0925   -0.9693    1.0187 C   0  0  0  0  0  0
   -0.5566   -0.8717    1.0416 C   0  0  0  0  0  0
   -0.0605    0.1416    0.0763 N   0  3  2  0  0  0
    1.4236    0.1974    0.0427 C   0  0  0  0  0  0
    1.9681    0.8407   -1.2433 C   0  0  0  0  0  0
    3.5066    0.8128   -1.2929 C   0  0  0  0  0  0
    4.0397    1.4549   -2.5005 N   0  0  0  0  0  0
    4.3531    2.8420   -2.4436 C   0  0  0  0  0  0
    3.9201    3.6496   -1.3551 C   0  0  0  0  0  0
    4.2300    5.0196   -1.2793 C   0  0  0  0  0  0
    4.9814    5.6275   -2.2953 C   0  0  0  0  0  0
    5.4139    4.8600   -3.3880 C   0  0  0  0  0  0
    5.1059    3.4868   -3.4754 C   0  0  0  0  0  0
    5.6975    2.6464   -4.9227 S   0  0  0  0  0  0
    4.9770    1.0720   -4.7262 C   0  0  0  0  0  0
    5.1119   -0.1450   -5.9623 S   0  0  0  0  0  0
    4.1789   -1.2560   -4.9971 C   0  0  0  0  0  0
    3.8041   -0.7004   -3.8007 C   0  0  0  0  0  0
    4.2722    0.6459   -3.6394 C   0  0  0  0  0  0
   -0.6959    1.4631    0.3195 C   0  0  0  0  0  0
   -2.2314    1.3599    0.2966 C   0  0  0  0  0  0
   -2.3952    0.6640    2.1809 H   0  0  0  0  0  0
   -0.3568   -0.1678   -0.8388 H   0  0  0  0  0  0
   -4.8345    1.4241    3.6671 H   0  0  0  0  0  0
   -4.2917   -1.2432    2.9055 H   0  0  0  0  0  0
   -5.7768   -0.3450    2.6924 H   0  0  0  0  0  0
   -4.5918   -0.2848    0.5323 H   0  0  0  0  0  0
   -4.6079    1.3125    1.2326 H   0  0  0  0  0  0
   -2.4125   -1.6910    1.7696 H   0  0  0  0  0  0
   -2.4275   -1.3509    0.0527 H   0  0  0  0  0  0
   -0.2145   -0.6145    2.0455 H   0  0  0  0  0  0
   -0.1313   -1.8473    0.8024 H   0  0  0  0  0  0
    1.7955    0.7233    0.9234 H   0  0  0  0  0  0
    1.8181   -0.8183    0.1012 H   0  0  0  0  0  0
    1.5640    0.3172   -2.1105 H   0  0  0  0  0  0
    1.6259    1.8712   -1.3254 H   0  0  0  0  0  0
    3.9312    1.2627   -0.3960 H   0  0  0  0  0  0
    3.8562   -0.2181   -1.2410 H   0  0  0  0  0  0
    3.3293    3.2510   -0.5464 H   0  0  0  0  0  0
    3.8880    5.6049   -0.4386 H   0  0  0  0  0  0
    5.2209    6.6793   -2.2411 H   0  0  0  0  0  0
    5.9855    5.3345   -4.1723 H   0  0  0  0  0  0
    3.9645   -2.2467   -5.3699 H   0  0  0  0  0  0
    3.2165   -1.2224   -3.0611 H   0  0  0  0  0  0
   -0.3648    1.8539    1.2832 H   0  0  0  0  0  0
   -0.3822    2.1821   -0.4364 H   0  0  0  0  0  0
   -2.5769    1.0917   -0.7035 H   0  0  0  0  0  0
   -2.6599    2.3357    0.5293 H   0  0  0  0  0  0
  1  2  1  0  0  0
  1 28  1  0  0  0
  2  3  1  0  0  0
  2 29  1  0  0  0
  2 30  1  0  0  0
  3  4  1  0  0  0
  3 31  1  0  0  0
  3 32  1  0  0  0
  4 26  1  0  0  0
  4 25  1  0  0  0
  4  5  1  0  0  0
  5  6  1  0  0  0
  5 33  1  0  0  0
  5 34  1  0  0  0
  6  7  1  0  0  0
  6 35  1  0  0  0
  6 36  1  0  0  0
  7 27  1  0  0  0
  7  8  1  0  0  0
  7 24  1  0  0  0
  8  9  1  0  0  0
  8 37  1  0  0  0
  8 38  1  0  0  0
  9 10  1  0  0  0
  9 39  1  0  0  0
  9 40  1  0  0  0
 10 11  1  0  0  0
 10 41  1  0  0  0
 10 42  1  0  0  0
 11 23  1  0  0  0
 11 12  1  0  0  0
 12 17  2  0  0  0
 12 13  1  0  0  0
 13 14  2  0  0  0
 13 43  1  0  0  0
 14 15  1  0  0  0
 14 44  1  0  0  0
 15 16  2  0  0  0
 15 45  1  0  0  0
 16 17  1  0  0  0
 16 46  1  0  0  0
 17 18  1  0  0  0
 18 19  1  0  0  0
 19 23  2  0  0  0
 19 20  1  0  0  0
 20 21  1  0  0  0
 21 22  2  0  0  0
 21 47  1  0  0  0
 22 23  1  0  0  0
 22 48  1  0  0  0
 24 25  1  0  0  0
 24 49  1  0  0  0
 24 50  1  0  0  0
 25 51  1  0  0  0
 25 52  1  0  0  0
M  CHG  2   4   1   7   1
M  END
$$$$
102
                    3D
 Schrodinger Suite 2021-2.
 65 68  0  0  1  0            999 V2000
    2.3478    3.7942    0.0243 C   0  0  0  0  0  0
    0.8509    3.4764    0.0021 C   0  0  0  0  0  0
    0.6939    2.0856   -0.2390 O   0  0  0  0  0  0
   -0.5788    1.5480   -0.2436 C   0  0  0  0  0  0
   -1.7518    2.3316   -0.0923 C   0  0  0  0  0  0
   -3.0230    1.7282   -0.0785 C   0  0  0  0  0  0
   -3.1431    0.3351   -0.2157 C   0  0  0  0  0  0
   -1.9899   -0.4546   -0.3679 C   0  0  0  0  0  0
   -0.7086    0.1415   -0.3845 C   0  0  0  0  0  0
    0.5052   -0.7229   -0.5626 C   0  0  0  0  0  0
    1.3819   -0.4364   -1.3783 O   0  0  0  0  0  0
    0.5795   -1.7702    0.2739 N   0  0  0  0  0  0
    1.7088   -2.6920    0.3809 C   0  0  0  0  0  0
    2.7248   -2.3289    1.5122 C   0  0  0  0  0  0
    3.8264   -3.3638    1.5746 N   0  3  1  0  0  0
    3.4225   -4.7299    2.0216 C   0  0  0  0  0  0
    4.6520   -5.6168    2.2863 C   0  0  0  0  0  0
    5.5202   -5.6997    1.0900 N   0  3  2  0  0  0
    6.6788   -6.5950    1.2987 C   0  0  0  0  0  0
    7.1553   -7.2753    0.0367 C   0  0  0  0  0  0
    6.3671   -8.0549    1.0659 C   0  0  0  0  0  0
    5.9263   -4.3501    0.6369 C   0  0  0  0  0  0
    4.6974   -3.4653    0.3658 C   0  0  0  0  0  0
    3.3349   -0.9102    1.2823 C   0  0  0  0  0  0
    4.3081   -0.4895    2.3993 C   0  0  0  0  0  0
    3.6062   -0.4904    3.7655 C   0  0  0  0  0  0
    2.9119   -1.8325    4.0420 C   0  0  0  0  0  0
    1.9794   -2.2267    2.8795 C   0  0  0  0  0  0
    4.4331   -3.0204    2.3057 H   0  0  0  0  0  0
    4.9677   -6.1081    0.3494 H   0  0  0  0  0  0
    2.5187    4.8542    0.2131 H   0  0  0  0  0  0
    2.8558    3.2284    0.8056 H   0  0  0  0  0  0
    2.8147    3.5441   -0.9287 H   0  0  0  0  0  0
    0.4060    3.7505    0.9599 H   0  0  0  0  0  0
    0.3640    4.0570   -0.7827 H   0  0  0  0  0  0
   -1.7044    3.4039    0.0187 H   0  0  0  0  0  0
   -3.9076    2.3368    0.0382 H   0  0  0  0  0  0
   -4.1190   -0.1276   -0.2072 H   0  0  0  0  0  0
   -2.0977   -1.5238   -0.4808 H   0  0  0  0  0  0
   -0.1892   -1.9129    0.9135 H   0  0  0  0  0  0
    1.2770   -3.6755    0.5621 H   0  0  0  0  0  0
    2.2061   -2.7591   -0.5869 H   0  0  0  0  0  0
    2.8492   -4.7025    2.9448 H   0  0  0  0  0  0
    2.7905   -5.1997    1.2675 H   0  0  0  0  0  0
    5.2251   -5.2202    3.1263 H   0  0  0  0  0  0
    4.3264   -6.6182    2.5704 H   0  0  0  0  0  0
    7.3893   -6.2984    2.0687 H   0  0  0  0  0  0
    6.6563   -7.0348   -0.9005 H   0  0  0  0  0  0
    8.2183   -7.4933   -0.0456 H   0  0  0  0  0  0
    6.9113   -8.7856    1.6610 H   0  0  0  0  0  0
    5.3454   -8.3313    0.8111 H   0  0  0  0  0  0
    6.5628   -3.8860    1.3923 H   0  0  0  0  0  0
    6.5241   -4.4351   -0.2714 H   0  0  0  0  0  0
    4.1342   -3.8814   -0.4698 H   0  0  0  0  0  0
    5.0655   -2.4937    0.0465 H   0  0  0  0  0  0
    3.8084   -0.8178    0.3064 H   0  0  0  0  0  0
    2.5399   -0.1647    1.2653 H   0  0  0  0  0  0
    5.1722   -1.1541    2.4223 H   0  0  0  0  0  0
    4.6979    0.5076    2.1907 H   0  0  0  0  0  0
    4.3231   -0.2679    4.5565 H   0  0  0  0  0  0
    2.8649    0.3097    3.7891 H   0  0  0  0  0  0
    3.6595   -2.6081    4.2093 H   0  0  0  0  0  0
    2.3373   -1.7614    4.9662 H   0  0  0  0  0  0
    1.2028   -1.4632    2.8164 H   0  0  0  0  0  0
    1.4343   -3.1387    3.1178 H   0  0  0  0  0  0
  1  2  1  0  0  0
  1 31  1  0  0  0
  1 32  1  0  0  0
  1 33  1  0  0  0
  2  3  1  0  0  0
  2 34  1  0  0  0
  2 35  1  0  0  0
  3  4  1  0  0  0
  4  9  1  0  0  0
  4  5  2  0  0  0
  5  6  1  0  0  0
  5 36  1  0  0  0
  6  7  2  0  0  0
  6 37  1  0  0  0
  7  8  1  0  0  0
  7 38  1  0  0  0
  8  9  2  0  0  0
  8 39  1  0  0  0
  9 10  1  0  0  0
 10 11  2  0  0  0
 10 12  1  0  0  0
 12 13  1  0  0  0
 12 40  1  0  0  0
 13 14  1  0  0  0
 13 41  1  0  0  0
 13 42  1  0  0  0
 14 28  1  0  0  0
 14 15  1  0  0  0
 14 24  1  0  0  0
 15 29  1  0  0  0
 15 23  1  0  0  0
 15 16  1  0  0  0
 16 17  1  0  0  0
 16 43  1  0  0  0
 16 44  1  0  0  0
 17 18  1  0  0  0
 17 45  1  0  0  0
 17 46  1  0  0  0
 18 30  1  0  0  0
 18 19  1  0  0  0
 18 22  1  0  0  0
 19 21  1  0  0  0
 19 20  1  0  0  0
 19 47  1  0  0  0
 20 21  1  0  0  0
 20 48  1  0  0  0
 20 49  1  0  0  0
 21 50  1  0  0  0
 21 51  1  0  0  0
 22 23  1  0  0  0
 22 52  1  0  0  0
 22 53  1  0  0  0
 23 54  1  0  0  0
 23 55  1  0  0  0
 24 25  1  0  0  0
 24 56  1  0  0  0
 24 57  1  0  0  0
 25 26  1  0  0  0
 25 58  1  0  0  0
 25 59  1  0  0  0
 26 27  1  0  0  0
 26 60  1  0  0  0
 26 61  1  0  0  0
 27 28  1  0  0  0
 27 62  1  0  0  0
 27 63  1  0  0  0
 28 64  1  0  0  0
 28 65  1  0  0  0
M  CHG  2  15   1  18   1
M  END
$$$$
103
                    3D
 Schrodinger Suite 2021-2.
 58 61  0  0  1  0            999 V2000
   -4.7110    2.7033    1.9416 O   0  0  0  0  0  0
   -4.9422    2.0624    0.7053 C   0  0  0  0  0  0
   -4.2965    0.6663    0.7091 C   0  0  0  0  0  0
   -2.8173    0.7215    0.8346 N   0  3  1  0  0  0
   -2.2466   -0.5401    1.3667 C   0  0  0  0  0  0
   -0.7280   -0.4168    1.5860 C   0  0  0  0  0  0
   -0.0347   -0.0047    0.3383 N   0  3  2  0  0  0
    1.4414    0.0734    0.4804 C   0  0  0  0  0  0
    2.1054   -1.3125    0.5294 C   0  0  0  0  0  0
    3.6412   -1.2141    0.5367 C   0  0  0  0  0  0
    4.2919   -2.5298    0.5097 N   0  0  0  0  0  0
    4.0281   -3.4138    1.5714 C   0  0  0  0  0  0
    4.0258   -2.9309    2.9030 C   0  0  0  0  0  0
    3.7283   -3.7829    3.9812 C   0  0  0  0  0  0
    3.4247   -5.1325    3.7412 C   0  0  0  0  0  0
    3.4224   -5.6229    2.4236 C   0  0  0  0  0  0
    3.7185   -4.7782    1.3311 C   0  0  0  0  0  0
    3.7151   -5.3971   -0.0044 C   0  0  0  0  0  0
    4.3924   -5.0215   -1.1037 C   0  0  0  0  0  0
    5.3204   -3.8909   -1.2654 C   0  0  0  0  0  0
    6.3171   -4.0203   -2.2578 C   0  0  0  0  0  0
    7.2698   -3.0070   -2.4658 C   0  0  0  0  0  0
    7.2392   -1.8484   -1.6730 C   0  0  0  0  0  0
    6.2534   -1.7076   -0.6804 C   0  0  0  0  0  0
    5.2857   -2.7192   -0.4657 C   0  0  0  0  0  0
   -0.6112    1.2532   -0.1984 C   0  0  0  0  0  0
   -2.1292    1.1269   -0.4170 C   0  0  0  0  0  0
   -2.6247    1.4336    1.5254 H   0  0  0  0  0  0
   -0.2170   -0.7185   -0.3531 H   0  0  0  0  0  0
   -5.1818    3.5236    1.9491 H   0  0  0  0  0  0
   -6.0195    1.9691    0.5656 H   0  0  0  0  0  0
   -4.5735    2.6858   -0.1084 H   0  0  0  0  0  0
   -4.7163    0.0995    1.5417 H   0  0  0  0  0  0
   -4.5667    0.1211   -0.1966 H   0  0  0  0  0  0
   -2.7264   -0.7912    2.3137 H   0  0  0  0  0  0
   -2.4615   -1.3571    0.6757 H   0  0  0  0  0  0
   -0.5243    0.3111    2.3732 H   0  0  0  0  0  0
   -0.3447   -1.3748    1.9355 H   0  0  0  0  0  0
    1.8501    0.6102   -0.3770 H   0  0  0  0  0  0
    1.7021    0.6594    1.3631 H   0  0  0  0  0  0
    1.7699   -1.8558    1.4119 H   0  0  0  0  0  0
    1.7885   -1.8976   -0.3351 H   0  0  0  0  0  0
    3.9333   -0.6377   -0.3416 H   0  0  0  0  0  0
    3.9861   -0.6382    1.3950 H   0  0  0  0  0  0
    4.2633   -1.9002    3.1178 H   0  0  0  0  0  0
    3.7358   -3.4007    4.9913 H   0  0  0  0  0  0
    3.1980   -5.7927    4.5656 H   0  0  0  0  0  0
    3.1941   -6.6653    2.2544 H   0  0  0  0  0  0
    3.0732   -6.2605   -0.1054 H   0  0  0  0  0  0
    4.2366   -5.6152   -1.9930 H   0  0  0  0  0  0
    6.3592   -4.9110   -2.8679 H   0  0  0  0  0  0
    8.0256   -3.1219   -3.2285 H   0  0  0  0  0  0
    7.9709   -1.0685   -1.8244 H   0  0  0  0  0  0
    6.2511   -0.8112   -0.0774 H   0  0  0  0  0  0
   -0.3988    2.0731    0.4899 H   0  0  0  0  0  0
   -0.1320    1.5031   -1.1460 H   0  0  0  0  0  0
   -2.3333    0.3935   -1.1990 H   0  0  0  0  0  0
   -2.5158    2.0817   -0.7716 H   0  0  0  0  0  0
  1  2  1  0  0  0
  1 30  1  0  0  0
  2  3  1  0  0  0
  2 31  1  0  0  0
  2 32  1  0  0  0
  3  4  1  0  0  0
  3 33  1  0  0  0
  3 34  1  0  0  0
  4 28  1  0  0  0
  4 27  1  0  0  0
  4  5  1  0  0  0
  5  6  1  0  0  0
  5 35  1  0  0  0
  5 36  1  0  0  0
  6  7  1  0  0  0
  6 37  1  0  0  0
  6 38  1  0  0  0
  7 29  1  0  0  0
  7  8  1  0  0  0
  7 26  1  0  0  0
  8  9  1  0  0  0
  8 39  1  0  0  0
  8 40  1  0  0  0
  9 10  1  0  0  0
  9 41  1  0  0  0
  9 42  1  0  0  0
 10 11  1  0  0  0
 10 43  1  0  0  0
 10 44  1  0  0  0
 11 25  1  0  0  0
 11 12  1  0  0  0
 12 17  2  0  0  0
 12 13  1  0  0  0
 13 14  2  0  0  0
 13 45  1  0  0  0
 14 15  1  0  0  0
 14 46  1  0  0  0
 15 16  2  0  0  0
 15 47  1  0  0  0
 16 17  1  0  0  0
 16 48  1  0  0  0
 17 18  1  0  0  0
 18 19  2  0  0  0
 18 49  1  0  0  0
 19 20  1  0  0  0
 19 50  1  0  0  0
 20 25  2  0  0  0
 20 21  1  0  0  0
 21 22  2  0  0  0
 21 51  1  0  0  0
 22 23  1  0  0  0
 22 52  1  0  0  0
 23 24  2  0  0  0
 23 53  1  0  0  0
 24 25  1  0  0  0
 24 54  1  0  0  0
 26 27  1  0  0  0
 26 55  1  0  0  0
 26 56  1  0  0  0
 27 57  1  0  0  0
 27 58  1  0  0  0
M  CHG  2   4   1   7   1
M  END
$$$$
104
                    3D
 Schrodinger Suite 2021-2.
 63 65  0  0  1  0            999 V2000
   -4.2523   -1.3781   -2.0352 C   0  0  0  0  0  0
   -2.9148   -1.7046   -1.5636 N   0  0  0  0  0  0
   -2.0182   -0.7951   -1.1571 C   0  0  0  0  0  0
   -2.2376    0.4164   -1.1542 O   0  0  0  0  0  0
   -0.6582   -1.3310   -0.7018 C   0  0  0  0  0  0
   -0.0169   -0.4374    0.3083 N   0  3  1  0  0  0
   -0.5458   -0.7317    1.6708 C   0  0  0  0  0  0
    1.4834   -0.2813    0.2229 C   0  0  1  0  0  0
    1.9535    0.5999    1.4142 C   0  0  0  0  0  0
    1.7382    2.0018    1.3940 C   0  0  0  0  0  0
    2.1370    2.8172    2.4701 C   0  0  0  0  0  0
    2.7456    2.2459    3.6005 C   0  0  0  0  0  0
    2.9421    0.8557    3.6556 C   0  0  0  0  0  0
    2.5430    0.0414    2.5787 C   0  0  0  0  0  0
    2.1927   -1.6691    0.1781 C   0  0  0  0  0  0
    3.7236   -1.5769   -0.0322 C   0  0  0  0  0  0
    4.1671   -0.8352   -1.3390 C   0  0  1  0  0  0
    5.7039   -0.6173   -1.3231 C   0  0  0  0  0  0
    6.5761   -1.6054   -0.7980 C   0  0  0  0  0  0
    7.9708   -1.4139   -0.7792 C   0  0  0  0  0  0
    8.5278   -0.2297   -1.2905 C   0  0  0  0  0  0
    7.6848    0.7591   -1.8251 C   0  0  0  0  0  0
    6.2902    0.5668   -1.8425 C   0  0  0  0  0  0
    3.7645   -1.5978   -2.5801 N   0  3  0  0  0  0
    4.2077   -0.9996   -3.8679 C   0  0  0  0  0  0
    4.0614   -3.0546   -2.5778 C   0  0  0  0  0  0
    3.4100    0.5344   -1.2948 C   0  0  0  0  0  0
    1.8824    0.3989   -1.1222 C   0  0  0  0  0  0
   -0.3732    0.4825    0.0889 H   0  0  0  0  0  0
    2.7566   -1.5434   -2.5993 H   0  0  0  0  0  0
   -4.7820   -2.2892   -2.3134 H   0  0  0  0  0  0
   -4.8266   -0.8742   -1.2567 H   0  0  0  0  0  0
   -4.2084   -0.7293   -2.9111 H   0  0  0  0  0  0
   -2.6613   -2.6820   -1.5413 H   0  0  0  0  0  0
   -0.7625   -2.3381   -0.2937 H   0  0  0  0  0  0
   -0.0708   -1.4425   -1.6084 H   0  0  0  0  0  0
   -0.0972   -1.6361    2.0821 H   0  0  0  0  0  0
   -0.3743    0.0888    2.3670 H   0  0  0  0  0  0
   -1.6255   -0.8819    1.6491 H   0  0  0  0  0  0
    1.2514    2.4811    0.5595 H   0  0  0  0  0  0
    1.9691    3.8836    2.4304 H   0  0  0  0  0  0
    3.0508    2.8705    4.4273 H   0  0  0  0  0  0
    3.3961    0.4107    4.5289 H   0  0  0  0  0  0
    2.7014   -1.0204    2.6778 H   0  0  0  0  0  0
    1.9758   -2.2504    1.0735 H   0  0  0  0  0  0
    1.7963   -2.2736   -0.6363 H   0  0  0  0  0  0
    4.1695   -1.0579    0.8150 H   0  0  0  0  0  0
    4.1282   -2.5840    0.0367 H   0  0  0  0  0  0
    6.1999   -2.5358   -0.4045 H   0  0  0  0  0  0
    8.6150   -2.1796   -0.3723 H   0  0  0  0  0  0
    9.5977   -0.0819   -1.2761 H   0  0  0  0  0  0
    8.1087    1.6687   -2.2249 H   0  0  0  0  0  0
    5.6916    1.3526   -2.2736 H   0  0  0  0  0  0
    5.2884   -1.0748   -3.9927 H   0  0  0  0  0  0
    3.7476   -1.5262   -4.7045 H   0  0  0  0  0  0
    3.9229    0.0446   -3.9738 H   0  0  0  0  0  0
    5.1286   -3.2492   -2.4763 H   0  0  0  0  0  0
    3.5292   -3.5869   -1.7913 H   0  0  0  0  0  0
    3.7371   -3.5096   -3.5143 H   0  0  0  0  0  0
    3.8071    1.1360   -0.4764 H   0  0  0  0  0  0
    3.5811    1.1345   -2.1849 H   0  0  0  0  0  0
    1.5203   -0.1603   -1.9814 H   0  0  0  0  0  0
    1.4123    1.3748   -1.2315 H   0  0  0  0  0  0
  1  2  1  0  0  0
  1 31  1  0  0  0
  1 32  1  0  0  0
  1 33  1  0  0  0
  2  3  1  0  0  0
  2 34  1  0  0  0
  3  4  2  0  0  0
  3  5  1  0  0  0
  5  6  1  0  0  0
  5 35  1  0  0  0
  5 36  1  0  0  0
  6 29  1  0  0  0
  6  7  1  0  0  0
  6  8  1  0  0  0
  7 37  1  0  0  0
  7 38  1  0  0  0
  7 39  1  0  0  0
  8 28  1  0  0  0
  8  9  1  0  0  0
  8 15  1  0  0  0
  9 14  1  0  0  0
  9 10  2  0  0  0
 10 11  1  0  0  0
 10 40  1  0  0  0
 11 12  2  0  0  0
 11 41  1  0  0  0
 12 13  1  0  0  0
 12 42  1  0  0  0
 13 14  2  0  0  0
 13 43  1  0  0  0
 14 44  1  0  0  0
 15 16  1  0  0  0
 15 45  1  0  0  0
 15 46  1  0  0  0
 16 17  1  0  0  0
 16 47  1  0  0  0
 16 48  1  0  0  0
 17 18  1  0  0  0
 17 24  1  0  0  0
 17 27  1  0  0  0
 18 23  1  0  0  0
 18 19  2  0  0  0
 19 20  1  0  0  0
 19 49  1  0  0  0
 20 21  2  0  0  0
 20 50  1  0  0  0
 21 22  1  0  0  0
 21 51  1  0  0  0
 22 23  2  0  0  0
 22 52  1  0  0  0
 23 53  1  0  0  0
 24 30  1  0  0  0
 24 25  1  0  0  0
 24 26  1  0  0  0
 25 54  1  0  0  0
 25 55  1  0  0  0
 25 56  1  0  0  0
 26 57  1  0  0  0
 26 58  1  0  0  0
 26 59  1  0  0  0
 27 28  1  0  0  0
 27 60  1  0  0  0
 27 61  1  0  0  0
 28 62  1  0  0  0
 28 63  1  0  0  0
M  CHG  2   6   1  24   1
M  END
$$$$
105
                    3D
 Schrodinger Suite 2021-2.
 56 59  0  0  1  0            999 V2000
   -1.2309    5.8215   -2.7201 C   0  0  0  0  0  0
   -1.6955    5.1730   -1.4079 C   0  0  0  0  0  0
   -1.3476    3.7315   -1.3288 N   0  3  2  0  0  0
   -2.1757    3.0091   -0.3319 C   0  0  0  0  0  0
   -1.8594    1.5032   -0.3292 C   0  0  0  0  0  0
   -0.4153    1.2533   -0.0945 N   0  3  1  0  0  0
   -0.1096   -0.1977   -0.0051 C   0  0  0  0  0  0
    1.2514   -0.4851    0.6524 C   0  0  0  0  0  0
    1.4598   -1.9837    0.9071 C   0  0  0  0  0  0
    2.7609   -2.2516    1.5058 N   0  0  0  0  0  0
    3.6307   -3.0019    0.6952 C   0  0  0  0  0  0
    3.3939   -4.3775    0.4228 C   0  0  0  0  0  0
    2.3045   -5.0807    0.9957 C   0  0  0  0  0  0
    2.0933   -6.4400    0.7051 C   0  0  0  0  0  0
    2.9722   -7.1145   -0.1576 C   0  0  0  0  0  0
    4.0635   -6.4283   -0.7195 C   0  0  0  0  0  0
    4.2941   -5.0645   -0.4380 C   0  0  0  0  0  0
    5.3616   -4.4503   -0.9873 N   0  0  0  0  0  0
    5.6150   -3.1526   -0.7237 C   0  0  0  0  0  0
    6.7454   -2.5379   -1.3036 C   0  0  0  0  0  0
    7.0464   -1.1862   -1.0586 C   0  0  0  0  0  0
    6.2123   -0.4254   -0.2231 C   0  0  0  0  0  0
    5.0804   -1.0186    0.3637 C   0  0  0  0  0  0
    4.7713   -2.3806    0.1216 C   0  0  0  0  0  0
    0.4156    1.9778   -1.0905 C   0  0  0  0  0  0
    0.0981    3.4846   -1.0936 C   0  0  0  0  0  0
   -1.5752    3.3341   -2.2295 H   0  0  0  0  0  0
   -0.2018    1.6456    0.8117 H   0  0  0  0  0  0
   -1.5800    6.8526   -2.7810 H   0  0  0  0  0  0
   -0.1450    5.8452   -2.8056 H   0  0  0  0  0  0
   -1.6267    5.2891   -3.5855 H   0  0  0  0  0  0
   -1.2865    5.7066   -0.5486 H   0  0  0  0  0  0
   -2.7795    5.2821   -1.3510 H   0  0  0  0  0  0
   -2.0024    3.4305    0.6599 H   0  0  0  0  0  0
   -3.2333    3.1531   -0.5572 H   0  0  0  0  0  0
   -2.4496    1.0139    0.4467 H   0  0  0  0  0  0
   -2.1553    1.0573   -1.2804 H   0  0  0  0  0  0
   -0.8823   -0.6802    0.5953 H   0  0  0  0  0  0
   -0.1606   -0.6516   -0.9962 H   0  0  0  0  0  0
    2.0599   -0.1196    0.0193 H   0  0  0  0  0  0
    1.3242    0.0545    1.5978 H   0  0  0  0  0  0
    0.6896   -2.3546    1.5837 H   0  0  0  0  0  0
    1.3426   -2.5315   -0.0294 H   0  0  0  0  0  0
    3.1918   -1.4209    1.8848 H   0  0  0  0  0  0
    1.6177   -4.5941    1.6712 H   0  0  0  0  0  0
    1.2587   -6.9646    1.1463 H   0  0  0  0  0  0
    2.8142   -8.1586   -0.3838 H   0  0  0  0  0  0
    4.7375   -6.9606   -1.3752 H   0  0  0  0  0  0
    7.3946   -3.1123   -1.9487 H   0  0  0  0  0  0
    7.9168   -0.7351   -1.5117 H   0  0  0  0  0  0
    6.4410    0.6127   -0.0317 H   0  0  0  0  0  0
    4.4598   -0.4077    1.0018 H   0  0  0  0  0  0
    1.4744    1.8448   -0.8709 H   0  0  0  0  0  0
    0.2430    1.5583   -2.0831 H   0  0  0  0  0  0
    0.6957    3.9691   -1.8650 H   0  0  0  0  0  0
    0.3927    3.9290   -0.1412 H   0  0  0  0  0  0
  1  2  1  0  0  0
  1 29  1  0  0  0
  1 30  1  0  0  0
  1 31  1  0  0  0
  2  3  1  0  0  0
  2 32  1  0  0  0
  2 33  1  0  0  0
  3 27  1  0  0  0
  3 26  1  0  0  0
  3  4  1  0  0  0
  4  5  1  0  0  0
  4 34  1  0  0  0
  4 35  1  0  0  0
  5  6  1  0  0  0
  5 36  1  0  0  0
  5 37  1  0  0  0
  6 28  1  0  0  0
  6  7  1  0  0  0
  6 25  1  0  0  0
  7  8  1  0  0  0
  7 38  1  0  0  0
  7 39  1  0  0  0
  8  9  1  0  0  0
  8 40  1  0  0  0
  8 41  1  0  0  0
  9 10  1  0  0  0
  9 42  1  0  0  0
  9 43  1  0  0  0
 10 11  1  0  0  0
 10 44  1  0  0  0
 11 24  1  0  0  0
 11 12  2  0  0  0
 12 17  1  0  0  0
 12 13  1  0  0  0
 13 14  2  0  0  0
 13 45  1  0  0  0
 14 15  1  0  0  0
 14 46  1  0  0  0
 15 16  2  0  0  0
 15 47  1  0  0  0
 16 17  1  0  0  0
 16 48  1  0  0  0
 17 18  2  0  0  0
 18 19  1  0  0  0
 19 24  2  0  0  0
 19 20  1  0  0  0
 20 21  2  0  0  0
 20 49  1  0  0  0
 21 22  1  0  0  0
 21 50  1  0  0  0
 22 23  2  0  0  0
 22 51  1  0  0  0
 23 24  1  0  0  0
 23 52  1  0  0  0
 25 26  1  0  0  0
 25 53  1  0  0  0
 25 54  1  0  0  0
 26 55  1  0  0  0
 26 56  1  0  0  0
M  CHG  2   3   1   6   1
M  END
$$$$
106
                    3D
 Schrodinger Suite 2021-2.
 50 52  0  0  1  0            999 V2000
   -0.0563    2.0579    1.5077 C   0  0  0  0  0  0
   -0.6096    1.1534    0.3916 C   0  0  0  0  0  0
   -2.1045    0.8784    0.6274 C   0  0  0  0  0  0
   -0.5142    1.8578   -0.8311 O   0  0  0  0  0  0
    0.1651   -0.1793    0.2636 C   0  0  0  0  0  0
    1.6724   -0.0447   -0.0274 C   0  0  0  0  0  0
    2.3415   -1.3969   -0.1834 C   0  0  0  0  0  0
    2.4643   -1.9852   -1.4587 C   0  0  0  0  0  0
    3.0896   -3.2385   -1.5997 C   0  0  0  0  0  0
    3.5841   -3.9120   -0.4661 C   0  0  0  0  0  0
    3.4454   -3.3428    0.8182 C   0  0  0  0  0  0
    4.0010   -4.0622    2.0142 C   0  0  0  0  0  0
    5.1837   -4.4047    2.0124 O   0  0  0  0  0  0
    3.1680   -4.3237    3.0460 N   0  0  0  0  0  0
    1.6881   -4.1360    3.0540 C   0  0  0  0  0  0
    1.3001   -4.7997    4.3242 C   0  0  0  0  0  0
    0.1928   -5.1300    5.1489 C   0  0  0  0  0  0
    0.6025   -5.7756    6.2461 N   0  0  0  0  0  0
    1.9585   -5.8707    6.1398 N   0  0  0  0  0  0
    2.7464   -6.5130    7.1724 C   0  0  0  0  0  0
    3.1021   -5.5329    8.2982 C   0  0  0  0  0  0
    3.8850   -6.1875    9.2731 O   0  0  0  0  0  0
    2.3597   -5.2732    4.9711 C   0  0  0  0  0  0
    3.6289   -5.0268    4.2716 C   0  0  0  0  0  0
    2.8401   -2.0728    0.9495 C   0  0  0  0  0  0
   -0.0638    1.5444    2.4696 H   0  0  0  0  0  0
    0.9675    2.3741    1.3077 H   0  0  0  0  0  0
   -0.6541    2.9638    1.6147 H   0  0  0  0  0  0
   -2.2636    0.3459    1.5658 H   0  0  0  0  0  0
   -2.6779    1.8051    0.6753 H   0  0  0  0  0  0
   -2.5302    0.2702   -0.1716 H   0  0  0  0  0  0
   -0.8831    1.3221   -1.5168 H   0  0  0  0  0  0
    0.0359   -0.7545    1.1817 H   0  0  0  0  0  0
   -0.2894   -0.7783   -0.5272 H   0  0  0  0  0  0
    1.8355    0.5372   -0.9353 H   0  0  0  0  0  0
    2.1727    0.4942    0.7771 H   0  0  0  0  0  0
    2.0843   -1.4749   -2.3318 H   0  0  0  0  0  0
    3.1908   -3.6837   -2.5785 H   0  0  0  0  0  0
    4.0645   -4.8724   -0.5872 H   0  0  0  0  0  0
    1.4206   -3.0799    3.0615 H   0  0  0  0  0  0
    1.2285   -4.6072    2.1842 H   0  0  0  0  0  0
   -0.8584   -4.9302    5.0022 H   0  0  0  0  0  0
    2.1851   -7.3626    7.5646 H   0  0  0  0  0  0
    3.6523   -6.9135    6.7151 H   0  0  0  0  0  0
    3.6616   -4.6833    7.9060 H   0  0  0  0  0  0
    2.1998   -5.1420    8.7695 H   0  0  0  0  0  0
    4.0853   -5.5715    9.9612 H   0  0  0  0  0  0
    4.1345   -5.9641    4.0350 H   0  0  0  0  0  0
    4.2931   -4.3965    4.8639 H   0  0  0  0  0  0
    2.7588   -1.6087    1.9218 H   0  0  0  0  0  0
  1  2  1  0  0  0
  1 26  1  0  0  0
  1 27  1  0  0  0
  1 28  1  0  0  0
  2  3  1  0  0  0
  2  4  1  0  0  0
  2  5  1  0  0  0
  3 29  1  0  0  0
  3 30  1  0  0  0
  3 31  1  0  0  0
  4 32  1  0  0  0
  5  6  1  0  0  0
  5 33  1  0  0  0
  5 34  1  0  0  0
  6  7  1  0  0  0
  6 35  1  0  0  0
  6 36  1  0  0  0
  7 25  1  0  0  0
  7  8  2  0  0  0
  8  9  1  0  0  0
  8 37  1  0  0  0
  9 10  2  0  0  0
  9 38  1  0  0  0
 10 11  1  0  0  0
 10 39  1  0  0  0
 11 12  1  0  0  0
 11 25  2  0  0  0
 12 13  2  0  0  0
 12 14  1  0  0  0
 14 24  1  0  0  0
 14 15  1  0  0  0
 15 16  1  0  0  0
 15 40  1  0  0  0
 15 41  1  0  0  0
 16 23  2  0  0  0
 16 17  1  0  0  0
 17 18  2  0  0  0
 17 42  1  0  0  0
 18 19  1  0  0  0
 19 20  1  0  0  0
 19 23  1  0  0  0
 20 21  1  0  0  0
 20 43  1  0  0  0
 20 44  1  0  0  0
 21 22  1  0  0  0
 21 45  1  0  0  0
 21 46  1  0  0  0
 22 47  1  0  0  0
 23 24  1  0  0  0
 24 48  1  0  0  0
 24 49  1  0  0  0
 25 50  1  0  0  0
M  END
$$$$
107
                    3D
 Schrodinger Suite 2021-2.
 60 62  0  0  1  0            999 V2000
   -4.5348   -3.0333    0.7026 C   0  0  0  0  0  0
   -4.0776   -1.8400   -0.1636 C   0  0  0  0  0  0
   -4.5156   -2.1032   -1.6200 C   0  0  0  0  0  0
   -2.6058   -1.5680   -0.0609 N   0  3  2  0  0  0
   -2.0904   -1.5282    1.3390 C   0  0  0  0  0  0
   -0.5639   -1.3458    1.3873 C   0  0  0  0  0  0
   -0.1175   -0.0761    0.6481 C   0  0  1  0  0  0
    1.4213    0.0864    0.7050 C   0  0  0  0  0  0
    1.9639    1.4627    0.2636 C   0  0  0  0  0  0
    1.1485    2.3462    0.0023 O   0  0  0  0  0  0
    3.3126    1.6489    0.1884 N   0  0  0  0  0  0
    4.2798    0.5446    0.3163 C   0  0  0  0  0  0
    4.7112    0.1143   -1.0973 C   0  0  0  0  0  0
    5.3073    1.3064   -1.8705 C   0  0  0  0  0  0
    4.4170    2.5632   -1.7827 C   0  0  0  0  0  0
    4.0112    2.8582   -0.3193 C   0  0  1  0  0  0
    3.2674    4.2089   -0.1617 C   0  0  0  0  0  0
    4.1780    5.4384   -0.3285 C   0  0  0  0  0  0
    3.4485    6.6750   -0.1257 N   0  0  0  0  0  0
    2.9550    7.5447   -1.0752 C   0  0  0  0  0  0
    2.3403    8.5664   -0.4095 C   0  0  0  0  0  0
    2.5120    8.2277    0.9619 C   0  0  0  0  0  0
    3.1767    7.0956    1.1287 N   0  0  0  0  0  0
   -0.6627   -0.1512   -0.7900 C   0  0  0  0  0  0
   -2.1878   -0.3443   -0.8049 C   0  0  0  0  0  0
   -2.1432   -2.3476   -0.5063 H   0  0  0  0  0  0
   -5.5800   -3.2790    0.5118 H   0  0  0  0  0  0
   -3.9457   -3.9272    0.4945 H   0  0  0  0  0  0
   -4.4693   -2.8183    1.7691 H   0  0  0  0  0  0
   -4.6085   -0.9563    0.1939 H   0  0  0  0  0  0
   -5.5608   -2.4110   -1.6651 H   0  0  0  0  0  0
   -4.4400   -1.2167   -2.2482 H   0  0  0  0  0  0
   -3.9220   -2.8961   -2.0764 H   0  0  0  0  0  0
   -2.5852   -0.7254    1.8879 H   0  0  0  0  0  0
   -2.3095   -2.4574    1.8623 H   0  0  0  0  0  0
   -0.2392   -1.3037    2.4277 H   0  0  0  0  0  0
   -0.0786   -2.2195    0.9498 H   0  0  0  0  0  0
   -0.5789    0.7746    1.1528 H   0  0  0  0  0  0
    1.7571   -0.0780    1.7297 H   0  0  0  0  0  0
    1.8695   -0.6961    0.0918 H   0  0  0  0  0  0
    5.1514    0.8769    0.8820 H   0  0  0  0  0  0
    3.9111   -0.3112    0.8786 H   0  0  0  0  0  0
    5.4391   -0.6953   -1.0399 H   0  0  0  0  0  0
    3.8504   -0.2803   -1.6389 H   0  0  0  0  0  0
    6.2875    1.5411   -1.4536 H   0  0  0  0  0  0
    5.4753    1.0342   -2.9128 H   0  0  0  0  0  0
    4.9528    3.4057   -2.2187 H   0  0  0  0  0  0
    3.5215    2.4220   -2.3898 H   0  0  0  0  0  0
    4.9253    2.9690    0.2667 H   0  0  0  0  0  0
    2.4543    4.2811   -0.8848 H   0  0  0  0  0  0
    2.8164    4.2544    0.8306 H   0  0  0  0  0  0
    5.0042    5.4028    0.3829 H   0  0  0  0  0  0
    4.6200    5.4650   -1.3242 H   0  0  0  0  0  0
    3.0802    7.3658   -2.1330 H   0  0  0  0  0  0
    1.8433    9.4244   -0.8369 H   0  0  0  0  0  0
    2.1762    8.7671    1.8353 H   0  0  0  0  0  0
   -0.4160    0.7537   -1.3449 H   0  0  0  0  0  0
   -0.1866   -0.9742   -1.3248 H   0  0  0  0  0  0
   -2.4941   -0.3970   -1.8474 H   0  0  0  0  0  0
   -2.6798    0.5296   -0.3749 H   0  0  0  0  0  0
  1  2  1  0  0  0
  1 27  1  0  0  0
  1 28  1  0  0  0
  1 29  1  0  0  0
  2  3  1  0  0  0
  2  4  1  0  0  0
  2 30  1  0  0  0
  3 31  1  0  0  0
  3 32  1  0  0  0
  3 33  1  0  0  0
  4 26  1  0  0  0
  4 25  1  0  0  0
  4  5  1  0  0  0
  5  6  1  0  0  0
  5 34  1  0  0  0
  5 35  1  0  0  0
  6  7  1  0  0  0
  6 36  1  0  0  0
  6 37  1  0  0  0
  7  8  1  0  0  0
  7 24  1  0  0  0
  7 38  1  0  0  0
  8  9  1  0  0  0
  8 39  1  0  0  0
  8 40  1  0  0  0
  9 10  2  0  0  0
  9 11  1  0  0  0
 11 16  1  0  0  0
 11 12  1  0  0  0
 12 13  1  0  0  0
 12 41  1  0  0  0
 12 42  1  0  0  0
 13 14  1  0  0  0
 13 43  1  0  0  0
 13 44  1  0  0  0
 14 15  1  0  0  0
 14 45  1  0  0  0
 14 46  1  0  0  0
 15 16  1  0  0  0
 15 47  1  0  0  0
 15 48  1  0  0  0
 16 17  1  0  0  0
 16 49  1  0  0  0
 17 18  1  0  0  0
 17 50  1  0  0  0
 17 51  1  0  0  0
 18 19  1  0  0  0
 18 52  1  0  0  0
 18 53  1  0  0  0
 19 23  1  0  0  0
 19 20  1  0  0  0
 20 21  2  0  0  0
 20 54  1  0  0  0
 21 22  1  0  0  0
 21 55  1  0  0  0
 22 23  2  0  0  0
 22 56  1  0  0  0
 24 25  1  0  0  0
 24 57  1  0  0  0
 24 58  1  0  0  0
 25 59  1  0  0  0
 25 60  1  0  0  0
M  CHG  1   4   1
M  END
$$$$
108
                    3D
 Schrodinger Suite 2021-2.
 55 56  0  0  1  0            999 V2000
   -0.9585   -2.4022    0.5758 C   0  0  0  0  0  0
   -0.5111   -1.1958   -0.2688 C   0  0  2  0  0  0
   -1.1979   -1.1383   -1.6470 C   0  0  0  0  0  0
   -2.7169   -0.9079   -1.5781 C   0  0  0  0  0  0
   -3.3295   -0.7169   -2.9525 C   0  0  0  0  0  0
   -3.5466    0.5821   -3.4579 C   0  0  0  0  0  0
   -4.1141    0.7586   -4.7349 C   0  0  0  0  0  0
   -4.4651   -0.3626   -5.5113 C   0  0  0  0  0  0
   -4.2481   -1.6609   -5.0106 C   0  0  0  0  0  0
   -3.6816   -1.8381   -3.7332 C   0  0  0  0  0  0
    0.9358   -1.2461   -0.4621 N   0  0  0  0  0  0
    1.8543   -0.7454    0.3791 C   0  0  0  0  0  0
    1.5669   -0.1598    1.4236 O   0  0  0  0  0  0
    3.3182   -0.9407   -0.0264 C   0  0  0  0  0  0
    4.2666   -1.0474    1.1887 C   0  0  0  0  0  0
    5.6782   -1.5515    0.8402 C   0  0  0  0  0  0
    5.9760   -1.7227   -0.3431 O   0  0  0  0  0  0
    6.5516   -1.8009    1.8468 N   0  0  0  0  0  0
    6.2706   -1.6447    3.2800 C   0  0  0  0  0  0
    6.1649   -3.0413    3.9174 C   0  0  0  0  0  0
    7.4563   -3.8587    3.6779 C   0  0  0  0  0  0
    7.3044   -5.2940    4.1991 C   0  0  0  0  0  0
    8.1271   -5.6759    5.1791 N   0  0  0  0  0  0
    6.4567   -6.0490    3.7267 O   0  0  0  0  0  0
    7.8458   -3.8471    2.1805 C   0  0  0  0  0  0
    7.8674   -2.4120    1.6223 C   0  0  0  0  0  0
   -2.0231   -2.3596    0.8035 H   0  0  0  0  0  0
   -0.7639   -3.3426    0.0592 H   0  0  0  0  0  0
   -0.4306   -2.4326    1.5296 H   0  0  0  0  0  0
   -0.7632   -0.2805    0.2700 H   0  0  0  0  0  0
   -0.7538   -0.3239   -2.2218 H   0  0  0  0  0  0
   -0.9896   -2.0521   -2.2053 H   0  0  0  0  0  0
   -3.2106   -1.7507   -1.0939 H   0  0  0  0  0  0
   -2.9344   -0.0315   -0.9663 H   0  0  0  0  0  0
   -3.2780    1.4468   -2.8687 H   0  0  0  0  0  0
   -4.2796    1.7543   -5.1184 H   0  0  0  0  0  0
   -4.9004   -0.2269   -6.4903 H   0  0  0  0  0  0
   -4.5162   -2.5207   -5.6066 H   0  0  0  0  0  0
   -3.5162   -2.8362   -3.3549 H   0  0  0  0  0  0
    1.2655   -1.7085   -1.2971 H   0  0  0  0  0  0
    3.3845   -1.8450   -0.6341 H   0  0  0  0  0  0
    3.6171   -0.1088   -0.6651 H   0  0  0  0  0  0
    4.3507   -0.0725    1.6707 H   0  0  0  0  0  0
    3.8340   -1.7346    1.9178 H   0  0  0  0  0  0
    7.0842   -1.0857    3.7444 H   0  0  0  0  0  0
    5.3716   -1.0682    3.4918 H   0  0  0  0  0  0
    5.9775   -2.9424    4.9873 H   0  0  0  0  0  0
    5.3008   -3.5606    3.4991 H   0  0  0  0  0  0
    8.2621   -3.3739    4.2320 H   0  0  0  0  0  0
    8.0605   -6.6116    5.5522 H   0  0  0  0  0  0
    8.8114   -5.0297    5.5442 H   0  0  0  0  0  0
    8.8247   -4.3084    2.0442 H   0  0  0  0  0  0
    7.1402   -4.4437    1.5994 H   0  0  0  0  0  0
    8.1542   -2.4286    0.5700 H   0  0  0  0  0  0
    8.6333   -1.8225    2.1281 H   0  0  0  0  0  0
  1  2  1  0  0  0
  1 27  1  0  0  0
  1 28  1  0  0  0
  1 29  1  0  0  0
  2  3  1  0  0  0
  2 11  1  0  0  0
  2 30  1  0  0  0
  3  4  1  0  0  0
  3 31  1  0  0  0
  3 32  1  0  0  0
  4  5  1  0  0  0
  4 33  1  0  0  0
  4 34  1  0  0  0
  5 10  1  0  0  0
  5  6  2  0  0  0
  6  7  1  0  0  0
  6 35  1  0  0  0
  7  8  2  0  0  0
  7 36  1  0  0  0
  8  9  1  0  0  0
  8 37  1  0  0  0
  9 10  2  0  0  0
  9 38  1  0  0  0
 10 39  1  0  0  0
 11 12  1  0  0  0
 11 40  1  0  0  0
 12 13  2  0  0  0
 12 14  1  0  0  0
 14 15  1  0  0  0
 14 41  1  0  0  0
 14 42  1  0  0  0
 15 16  1  0  0  0
 15 43  1  0  0  0
 15 44  1  0  0  0
 16 17  2  0  0  0
 16 18  1  0  0  0
 18 26  1  0  0  0
 18 19  1  0  0  0
 19 20  1  0  0  0
 19 45  1  0  0  0
 19 46  1  0  0  0
 20 21  1  0  0  0
 20 47  1  0  0  0
 20 48  1  0  0  0
 21 22  1  0  0  0
 21 25  1  0  0  0
 21 49  1  0  0  0
 22 23  1  0  0  0
 22 24  2  0  0  0
 23 50  1  0  0  0
 23 51  1  0  0  0
 25 26  1  0  0  0
 25 52  1  0  0  0
 25 53  1  0  0  0
 26 54  1  0  0  0
 26 55  1  0  0  0
M  END
$$$$
109
                    3D
 Schrodinger Suite 2021-2.
 63 66  0  0  1  0            999 V2000
   -0.8370   -1.4139   -0.0857 C   0  0  0  0  0  0
   -2.2407   -1.2996   -0.0916 C   0  0  0  0  0  0
   -2.8568   -0.0301   -0.0725 C   0  0  0  0  0  0
   -4.3129    0.0805   -0.0845 C   0  0  0  0  0  0
   -5.2208   -0.8942   -0.0096 N   0  0  0  0  0  0
   -6.4500   -0.2536   -0.0679 C   0  0  0  0  0  0
   -7.7481   -1.0035   -0.0223 C   0  0  0  0  0  0
   -8.4194   -0.8679    1.2943 N   0  3  0  0  0  0
   -7.7014   -1.5635    2.3971 C   0  0  0  0  0  0
   -8.3714   -1.2923    3.7550 C   0  0  0  0  0  0
   -9.8524   -1.6911    3.7291 C   0  0  0  0  0  0
  -10.5638   -0.9847    2.5680 C   0  0  0  0  0  0
   -9.8509   -1.2633    1.2340 C   0  0  0  0  0  0
   -6.2231    1.0926   -0.1808 C   0  0  0  0  0  0
   -4.8739    1.3180   -0.1874 O   0  0  0  0  0  0
   -2.0473    1.1255   -0.0500 C   0  0  0  0  0  0
   -0.6440    1.0098   -0.0417 C   0  0  0  0  0  0
   -0.0222   -0.2548   -0.0595 C   0  0  0  0  0  0
    1.3559   -0.2747   -0.0504 O   0  0  0  0  0  0
    2.0124   -1.5353   -0.0618 C   0  0  0  0  0  0
    3.5289   -1.3093   -0.0149 C   0  0  0  0  0  0
    3.9924   -0.6931    1.3181 C   0  0  0  0  0  0
    5.4398   -0.3612    1.3276 N   0  3  0  0  0  0
    5.7696    0.6520    2.3650 C   0  0  0  0  0  0
    7.2429    1.0835    2.2785 C   0  0  0  0  0  0
    8.1756   -0.1281    2.3926 C   0  0  0  0  0  0
    7.8038   -1.1724    1.3327 C   0  0  0  0  0  0
    6.3180   -1.5582    1.4341 C   0  0  0  0  0  0
   -8.4076    0.1170    1.5169 H   0  0  0  0  0  0
    5.6399    0.0737    0.4382 H   0  0  0  0  0  0
   -0.4102   -2.4050   -0.1031 H   0  0  0  0  0  0
   -2.8408   -2.1976   -0.1137 H   0  0  0  0  0  0
   -8.4041   -0.6161   -0.8027 H   0  0  0  0  0  0
   -7.5980   -2.0602   -0.2489 H   0  0  0  0  0  0
   -7.6786   -2.6360    2.1978 H   0  0  0  0  0  0
   -6.6650   -1.2294    2.4444 H   0  0  0  0  0  0
   -7.8527   -1.8394    4.5427 H   0  0  0  0  0  0
   -8.2811   -0.2340    4.0032 H   0  0  0  0  0  0
   -9.9422   -2.7721    3.6144 H   0  0  0  0  0  0
  -10.3293   -1.4356    4.6759 H   0  0  0  0  0  0
  -11.6019   -1.3140    2.5119 H   0  0  0  0  0  0
  -10.5896    0.0901    2.7527 H   0  0  0  0  0  0
  -10.3527   -0.7101    0.4392 H   0  0  0  0  0  0
   -9.9267   -2.3219    0.9800 H   0  0  0  0  0  0
   -6.8616    1.9601   -0.2615 H   0  0  0  0  0  0
   -2.4924    2.1096   -0.0373 H   0  0  0  0  0  0
   -0.0375    1.9033   -0.0225 H   0  0  0  0  0  0
    1.7031   -2.1418    0.7910 H   0  0  0  0  0  0
    1.7548   -2.0770   -0.9731 H   0  0  0  0  0  0
    4.0196   -2.2686   -0.1753 H   0  0  0  0  0  0
    3.8253   -0.6680   -0.8461 H   0  0  0  0  0  0
    3.4223    0.2224    1.4828 H   0  0  0  0  0  0
    3.7567   -1.3545    2.1532 H   0  0  0  0  0  0
    5.1346    1.5300    2.2399 H   0  0  0  0  0  0
    5.5546    0.2436    3.3540 H   0  0  0  0  0  0
    7.4204    1.5967    1.3324 H   0  0  0  0  0  0
    7.4679    1.8022    3.0672 H   0  0  0  0  0  0
    9.2143    0.1812    2.2720 H   0  0  0  0  0  0
    8.0928   -0.5661    3.3882 H   0  0  0  0  0  0
    8.0129   -0.7762    0.3382 H   0  0  0  0  0  0
    8.4279   -2.0589    1.4498 H   0  0  0  0  0  0
    6.1278   -2.0664    2.3808 H   0  0  0  0  0  0
    6.0886   -2.2705    0.6427 H   0  0  0  0  0  0
  1 18  1  0  0  0
  1  2  2  0  0  0
  1 31  1  0  0  0
  2  3  1  0  0  0
  2 32  1  0  0  0
  3  4  1  0  0  0
  3 16  2  0  0  0
  4 15  1  0  0  0
  4  5  2  0  0  0
  5  6  1  0  0  0
  6  7  1  0  0  0
  6 14  2  0  0  0
  7  8  1  0  0  0
  7 33  1  0  0  0
  7 34  1  0  0  0
  8 29  1  0  0  0
  8 13  1  0  0  0
  8  9  1  0  0  0
  9 10  1  0  0  0
  9 35  1  0  0  0
  9 36  1  0  0  0
 10 11  1  0  0  0
 10 37  1  0  0  0
 10 38  1  0  0  0
 11 12  1  0  0  0
 11 39  1  0  0  0
 11 40  1  0  0  0
 12 13  1  0  0  0
 12 41  1  0  0  0
 12 42  1  0  0  0
 13 43  1  0  0  0
 13 44  1  0  0  0
 14 15  1  0  0  0
 14 45  1  0  0  0
 16 17  1  0  0  0
 16 46  1  0  0  0
 17 18  2  0  0  0
 17 47  1  0  0  0
 18 19  1  0  0  0
 19 20  1  0  0  0
 20 21  1  0  0  0
 20 48  1  0  0  0
 20 49  1  0  0  0
 21 22  1  0  0  0
 21 50  1  0  0  0
 21 51  1  0  0  0
 22 23  1  0  0  0
 22 52  1  0  0  0
 22 53  1  0  0  0
 23 30  1  0  0  0
 23 28  1  0  0  0
 23 24  1  0  0  0
 24 25  1  0  0  0
 24 54  1  0  0  0
 24 55  1  0  0  0
 25 26  1  0  0  0
 25 56  1  0  0  0
 25 57  1  0  0  0
 26 27  1  0  0  0
 26 58  1  0  0  0
 26 59  1  0  0  0
 27 28  1  0  0  0
 27 60  1  0  0  0
 27 61  1  0  0  0
 28 62  1  0  0  0
 28 63  1  0  0  0
M  CHG  2   8   1  23   1
M  END
$$$$
110
                    3D
 Schrodinger Suite 2021-2.
 54 56  0  0  1  0            999 V2000
   -2.8981    1.0567   -1.6530 C   0  0  0  0  0  0
   -2.5697    1.2729   -0.2249 N   0  3  0  0  0  0
   -3.3866    2.3583    0.3619 C   0  0  0  0  0  0
   -1.1190    1.4700    0.0212 C   0  0  0  0  0  0
   -0.3148    0.1653   -0.1101 C   0  0  0  0  0  0
    1.1657    0.3530    0.2612 C   0  0  0  0  0  0
    1.9099   -0.8964    0.1533 N   0  0  0  0  0  0
    1.9084   -1.8740    1.0745 C   0  0  0  0  0  0
    1.2799   -1.8082    2.1315 O   0  0  0  0  0  0
    2.7857   -3.0550    0.7716 C   0  0  0  0  0  0
    2.9712   -3.5055   -0.5555 C   0  0  0  0  0  0
    3.7787   -4.6283   -0.8206 C   0  0  0  0  0  0
    4.3998   -5.3304    0.2321 C   0  0  0  0  0  0
    5.2157   -6.4408   -0.1166 N   0  0  0  0  0  0
    5.5764   -7.4951    0.6429 C   0  0  0  0  0  0
    5.1715   -7.6935    1.7887 O   0  0  0  0  0  0
    6.4105   -8.3527    0.0159 N   0  0  0  0  0  0
    6.9782   -8.1941   -1.3398 C   0  0  0  0  0  0
    7.8691   -9.3918   -1.5087 C   0  0  0  0  0  0
    8.6597   -9.7364   -2.6184 C   0  0  0  0  0  0
    9.4231  -10.9234   -2.5447 C   0  0  0  0  0  0
    9.3854  -11.7342   -1.3836 C   0  0  0  0  0  0
   10.1244  -12.8677   -1.3307 F   0  0  0  0  0  0
    8.5823  -11.3683   -0.2798 C   0  0  0  0  0  0
    7.8315  -10.1839   -0.3741 C   0  0  0  0  0  0
    6.9124   -9.5843    0.6518 C   0  0  0  0  0  0
    4.2192   -4.8784    1.5610 C   0  0  0  0  0  0
    3.4111   -3.7560    1.8257 C   0  0  0  0  0  0
   -2.8325    0.4305    0.2670 H   0  0  0  0  0  0
   -2.6066    1.9174   -2.2562 H   0  0  0  0  0  0
   -2.3966    0.1746   -2.0494 H   0  0  0  0  0  0
   -3.9700    0.9016   -1.7807 H   0  0  0  0  0  0
   -3.1543    3.3176   -0.1026 H   0  0  0  0  0  0
   -4.4500    2.1598    0.2233 H   0  0  0  0  0  0
   -3.2069    2.4439    1.4342 H   0  0  0  0  0  0
   -0.7271    2.2365   -0.6491 H   0  0  0  0  0  0
   -0.9826    1.8484    1.0355 H   0  0  0  0  0  0
   -0.7604   -0.5941    0.5338 H   0  0  0  0  0  0
   -0.3750   -0.2179   -1.1288 H   0  0  0  0  0  0
    1.6273    1.0810   -0.4064 H   0  0  0  0  0  0
    1.2605    0.7546    1.2715 H   0  0  0  0  0  0
    2.4773   -1.0242   -0.6723 H   0  0  0  0  0  0
    2.4950   -2.9989   -1.3823 H   0  0  0  0  0  0
    3.9126   -4.9549   -1.8418 H   0  0  0  0  0  0
    5.5341   -6.4597   -1.0744 H   0  0  0  0  0  0
    6.1959   -8.1953   -2.1000 H   0  0  0  0  0  0
    7.5608   -7.2755   -1.4224 H   0  0  0  0  0  0
    8.6842   -9.1134   -3.5002 H   0  0  0  0  0  0
   10.0411  -11.2150   -3.3811 H   0  0  0  0  0  0
    8.5474  -11.9800    0.6095 H   0  0  0  0  0  0
    7.4600   -9.3608    1.5685 H   0  0  0  0  0  0
    6.0959  -10.2706    0.8808 H   0  0  0  0  0  0
    4.7005   -5.3674    2.3938 H   0  0  0  0  0  0
    3.2844   -3.4310    2.8485 H   0  0  0  0  0  0
  1  2  1  0  0  0
  1 30  1  0  0  0
  1 31  1  0  0  0
  1 32  1  0  0  0
  2 29  1  0  0  0
  2  3  1  0  0  0
  2  4  1  0  0  0
  3 33  1  0  0  0
  3 34  1  0  0  0
  3 35  1  0  0  0
  4  5  1  0  0  0
  4 36  1  0  0  0
  4 37  1  0  0  0
  5  6  1  0  0  0
  5 38  1  0  0  0
  5 39  1  0  0  0
  6  7  1  0  0  0
  6 40  1  0  0  0
  6 41  1  0  0  0
  7  8  1  0  0  0
  7 42  1  0  0  0
  8  9  2  0  0  0
  8 10  1  0  0  0
 10 28  1  0  0  0
 10 11  2  0  0  0
 11 12  1  0  0  0
 11 43  1  0  0  0
 12 13  2  0  0  0
 12 44  1  0  0  0
 13 14  1  0  0  0
 13 27  1  0  0  0
 14 15  1  0  0  0
 14 45  1  0  0  0
 15 16  2  0  0  0
 15 17  1  0  0  0
 17 26  1  0  0  0
 17 18  1  0  0  0
 18 19  1  0  0  0
 18 46  1  0  0  0
 18 47  1  0  0  0
 19 25  2  0  0  0
 19 20  1  0  0  0
 20 21  2  0  0  0
 20 48  1  0  0  0
 21 22  1  0  0  0
 21 49  1  0  0  0
 22 23  1  0  0  0
 22 24  2  0  0  0
 24 25  1  0  0  0
 24 50  1  0  0  0
 25 26  1  0  0  0
 26 51  1  0  0  0
 26 52  1  0  0  0
 27 28  2  0  0  0
 27 53  1  0  0  0
 28 54  1  0  0  0
M  CHG  1   2   1
M  END
$$$$
111
                    3D
 Schrodinger Suite 2021-2.
 50 52  0  0  1  0            999 V2000
    0.4445    4.3714    6.1196 C   0  0  0  0  0  0
    1.3862    3.7553    5.2533 O   0  0  0  0  0  0
    0.9910    3.4698    3.9638 C   0  0  0  0  0  0
    1.9501    2.8806    3.1148 C   0  0  0  0  0  0
    1.6336    2.5603    1.7809 C   0  0  0  0  0  0
    0.3439    2.8230    1.2766 C   0  0  0  0  0  0
   -0.0059    2.4758   -0.1592 C   0  0  0  0  0  0
   -0.7990    1.1825   -0.2677 C   0  0  0  0  0  0
   -2.2014    1.2454   -0.4107 C   0  0  0  0  0  0
   -2.9603    0.0656   -0.5069 C   0  0  0  0  0  0
   -2.3179   -1.1839   -0.4604 C   0  0  0  0  0  0
   -0.9194   -1.2542   -0.3169 C   0  0  0  0  0  0
   -0.1417   -0.0710   -0.2177 C   0  0  0  0  0  0
    1.2323   -0.0586   -0.0715 O   0  0  0  0  0  0
    1.9105   -1.2690    0.0559 C   0  0  2  0  0  0
    1.5761   -1.8708    1.2746 O   0  0  0  0  0  0
    2.1906   -3.1293    1.5333 C   0  0  2  0  0  0
    1.5679   -3.6433    2.8451 C   0  0  0  0  0  0
    1.8357   -5.0160    3.0422 O   0  0  0  0  0  0
    3.7186   -2.9154    1.6080 C   0  0  1  0  0  0
    4.3943   -4.1511    1.7247 O   0  0  0  0  0  0
    4.2009   -2.2314    0.3253 C   0  0  0  0  0  0
    3.4164   -0.9346    0.0768 C   0  0  1  0  0  0
    3.8475   -0.4263   -1.1691 O   0  0  0  0  0  0
   -0.6228    3.4095    2.1176 C   0  0  0  0  0  0
   -0.3046    3.7318    3.4513 C   0  0  0  0  0  0
    1.6728   -1.9300   -0.7803 H   0  0  0  0  0  0
    1.9356   -3.8095    0.7180 H   0  0  0  0  0  0
    3.9670   -2.2964    2.4711 H   0  0  0  0  0  0
    3.6114   -0.2050    0.8641 H   0  0  0  0  0  0
    0.9070    4.5385    7.0922 H   0  0  0  0  0  0
    0.1247    5.3413    5.7358 H   0  0  0  0  0  0
   -0.4296    3.7377    6.2747 H   0  0  0  0  0  0
    2.9415    2.6731    3.4902 H   0  0  0  0  0  0
    2.3843    2.1107    1.1480 H   0  0  0  0  0  0
   -0.5792    3.2968   -0.5919 H   0  0  0  0  0  0
    0.9033    2.4018   -0.7574 H   0  0  0  0  0  0
   -2.7013    2.2024   -0.4439 H   0  0  0  0  0  0
   -4.0337    0.1192   -0.6149 H   0  0  0  0  0  0
   -2.8983   -2.0917   -0.5333 H   0  0  0  0  0  0
   -0.4681   -2.2337   -0.2828 H   0  0  0  0  0  0
    1.9235   -3.0685    3.7007 H   0  0  0  0  0  0
    0.4844   -3.5249    2.8106 H   0  0  0  0  0  0
    1.4070   -5.2939    3.8374 H   0  0  0  0  0  0
    4.0416   -4.6151    2.4693 H   0  0  0  0  0  0
    5.2683   -2.0169    0.3934 H   0  0  0  0  0  0
    4.0728   -2.9083   -0.5217 H   0  0  0  0  0  0
    3.3635    0.3648   -1.3513 H   0  0  0  0  0  0
   -1.6147    3.6134    1.7412 H   0  0  0  0  0  0
   -1.0740    4.1794    4.0616 H   0  0  0  0  0  0
  1  2  1  0  0  0
  1 31  1  0  0  0
  1 32  1  0  0  0
  1 33  1  0  0  0
  2  3  1  0  0  0
  3 26  1  0  0  0
  3  4  2  0  0  0
  4  5  1  0  0  0
  4 34  1  0  0  0
  5  6  2  0  0  0
  5 35  1  0  0  0
  6  7  1  0  0  0
  6 25  1  0  0  0
  7  8  1  0  0  0
  7 36  1  0  0  0
  7 37  1  0  0  0
  8 13  1  0  0  0
  8  9  2  0  0  0
  9 10  1  0  0  0
  9 38  1  0  0  0
 10 11  2  0  0  0
 10 39  1  0  0  0
 11 12  1  0  0  0
 11 40  1  0  0  0
 12 13  2  0  0  0
 12 41  1  0  0  0
 13 14  1  0  0  0
 14 15  1  0  0  0
 15 27  1  0  0  0
 15 23  1  0  0  0
 15 16  1  0  0  0
 16 17  1  0  0  0
 17 28  1  0  0  0
 17 18  1  0  0  0
 17 20  1  0  0  0
 18 19  1  0  0  0
 18 42  1  0  0  0
 18 43  1  0  0  0
 19 44  1  0  0  0
 20 29  1  0  0  0
 20 21  1  0  0  0
 20 22  1  0  0  0
 21 45  1  0  0  0
 22 23  1  0  0  0
 22 46  1  0  0  0
 22 47  1  0  0  0
 23 30  1  0  0  0
 23 24  1  0  0  0
 24 48  1  0  0  0
 25 26  2  0  0  0
 25 49  1  0  0  0
 26 50  1  0  0  0
M  END
$$$$
112
                    3D
 Schrodinger Suite 2021-2.
 65 68  0  0  1  0            999 V2000
   -1.2396   -4.6130    6.9982 C   0  0  0  0  0  0
   -1.6860   -4.9805    5.7009 O   0  0  0  0  0  0
   -1.2190   -4.2568    4.6248 C   0  0  0  0  0  0
   -1.6641   -4.6509    3.3463 C   0  0  0  0  0  0
   -1.2361   -3.9698    2.1908 C   0  0  0  0  0  0
   -0.3545   -2.8756    2.3007 C   0  0  0  0  0  0
    0.1173   -2.1328    1.0615 C   0  0  0  0  0  0
   -0.5814   -0.8252    0.8854 N   0  3  2  0  0  0
   -2.0608   -1.0070    0.7810 C   0  0  0  0  0  0
   -2.7930    0.0832   -0.0283 C   0  0  1  0  0  0
   -4.3068    0.0568    0.2656 C   0  0  0  0  0  0
   -5.0317    1.2016   -0.4540 C   0  0  0  0  0  0
   -4.3890    2.5538   -0.1122 C   0  0  0  0  0  0
   -2.9502    2.5339   -0.4656 N   0  3  1  0  0  0
   -2.2944    3.8550   -0.3551 C   0  0  0  0  0  0
   -0.9319    3.8425   -1.0715 C   0  0  0  0  0  0
   -0.3450    2.4277   -1.2392 C   0  0  0  0  0  0
   -0.6604    1.5162   -0.0296 C   0  0  1  0  0  0
   -2.1947    1.4710    0.2626 C   0  0  2  0  0  0
   -0.0171    0.0952   -0.1562 C   0  0  1  0  0  0
    1.5384    0.1511   -0.1610 C   0  0  0  0  0  0
    2.1752    0.6749    1.1413 C   0  0  0  0  0  0
    3.6960    0.4601    1.1831 C   0  0  0  0  0  0
    4.3406    0.9686    2.4810 C   0  0  0  0  0  0
    3.9157    0.1901    3.5803 O   0  0  0  0  0  0
    0.0979   -2.4746    3.5741 C   0  0  0  0  0  0
   -0.3300   -3.1574    4.7291 C   0  0  0  0  0  0
   -0.4304   -0.3350    1.7556 H   0  0  0  0  0  0
   -2.6576   -0.1251   -1.0911 H   0  0  0  0  0  0
   -2.9116    2.2941   -1.4460 H   0  0  0  0  0  0
   -0.2192    2.0028    0.8402 H   0  0  0  0  0  0
   -2.3253    1.6624    1.3301 H   0  0  0  0  0  0
   -0.3036   -0.3254   -1.1217 H   0  0  0  0  0  0
   -1.6875   -5.2795    7.7350 H   0  0  0  0  0  0
   -0.1563   -4.7036    7.0879 H   0  0  0  0  0  0
   -1.5396   -3.5949    7.2491 H   0  0  0  0  0  0
   -2.3405   -5.4877    3.2508 H   0  0  0  0  0  0
   -1.5881   -4.2918    1.2215 H   0  0  0  0  0  0
    1.1891   -2.0100    1.2003 H   0  0  0  0  0  0
   -0.0152   -2.7496    0.1713 H   0  0  0  0  0  0
   -2.2924   -1.9702    0.3240 H   0  0  0  0  0  0
   -2.4530   -1.0472    1.7983 H   0  0  0  0  0  0
   -4.7330   -0.9004   -0.0368 H   0  0  0  0  0  0
   -4.4788    0.1466    1.3390 H   0  0  0  0  0  0
   -4.9952    1.0395   -1.5323 H   0  0  0  0  0  0
   -6.0864    1.2082   -0.1773 H   0  0  0  0  0  0
   -4.8946    3.3449   -0.6672 H   0  0  0  0  0  0
   -4.5080    2.7807    0.9486 H   0  0  0  0  0  0
   -2.9238    4.6355   -0.7846 H   0  0  0  0  0  0
   -2.1675    4.1002    0.7006 H   0  0  0  0  0  0
   -1.0266    4.3002   -2.0569 H   0  0  0  0  0  0
   -0.2355    4.4713   -0.5155 H   0  0  0  0  0  0
   -0.7541    1.9718   -2.1422 H   0  0  0  0  0  0
    0.7257    2.5257   -1.4088 H   0  0  0  0  0  0
    1.9432   -0.8307   -0.4040 H   0  0  0  0  0  0
    1.8905    0.7641   -0.9884 H   0  0  0  0  0  0
    1.9669    1.7387    1.2557 H   0  0  0  0  0  0
    1.7223    0.1815    2.0008 H   0  0  0  0  0  0
    3.9273   -0.5980    1.0526 H   0  0  0  0  0  0
    4.1504    0.9776    0.3374 H   0  0  0  0  0  0
    5.4266    0.9045    2.4100 H   0  0  0  0  0  0
    4.0897    2.0152    2.6565 H   0  0  0  0  0  0
    4.3561    0.5008    4.3570 H   0  0  0  0  0  0
    0.7783   -1.6407    3.6702 H   0  0  0  0  0  0
    0.0399   -2.8190    5.6850 H   0  0  0  0  0  0
  1  2  1  0  0  0
  1 34  1  0  0  0
  1 35  1  0  0  0
  1 36  1  0  0  0
  2  3  1  0  0  0
  3 27  1  0  0  0
  3  4  2  0  0  0
  4  5  1  0  0  0
  4 37  1  0  0  0
  5  6  2  0  0  0
  5 38  1  0  0  0
  6  7  1  0  0  0
  6 26  1  0  0  0
  7  8  1  0  0  0
  7 39  1  0  0  0
  7 40  1  0  0  0
  8 28  1  0  0  0
  8 20  1  0  0  0
  8  9  1  0  0  0
  9 10  1  0  0  0
  9 41  1  0  0  0
  9 42  1  0  0  0
 10 29  1  0  0  0
 10 19  1  0  0  0
 10 11  1  0  0  0
 11 12  1  0  0  0
 11 43  1  0  0  0
 11 44  1  0  0  0
 12 13  1  0  0  0
 12 45  1  0  0  0
 12 46  1  0  0  0
 13 14  1  0  0  0
 13 47  1  0  0  0
 13 48  1  0  0  0
 14 30  1  0  0  0
 14 19  1  0  0  0
 14 15  1  0  0  0
 15 16  1  0  0  0
 15 49  1  0  0  0
 15 50  1  0  0  0
 16 17  1  0  0  0
 16 51  1  0  0  0
 16 52  1  0  0  0
 17 18  1  0  0  0
 17 53  1  0  0  0
 17 54  1  0  0  0
 18 31  1  0  0  0
 18 19  1  0  0  0
 18 20  1  0  0  0
 19 32  1  0  0  0
 20 33  1  0  0  0
 20 21  1  0  0  0
 21 22  1  0  0  0
 21 55  1  0  0  0
 21 56  1  0  0  0
 22 23  1  0  0  0
 22 57  1  0  0  0
 22 58  1  0  0  0
 23 24  1  0  0  0
 23 59  1  0  0  0
 23 60  1  0  0  0
 24 25  1  0  0  0
 24 61  1  0  0  0
 24 62  1  0  0  0
 25 63  1  0  0  0
 26 27  2  0  0  0
 26 64  1  0  0  0
 27 65  1  0  0  0
M  CHG  2   8   1  14   1
M  END
$$$$
113
                    3D
 Schrodinger Suite 2021-2.
 51 53  0  0  1  0            999 V2000
   -1.9183   -0.6483   -1.6574 C   0  0  0  0  0  0
   -0.4080   -0.4042   -1.5227 C   0  0  0  0  0  0
    0.0310    0.1431   -0.1423 C   0  0  0  0  0  0
   -0.4411    1.6029    0.0549 C   0  0  0  0  0  0
   -0.2962    2.1257    1.4915 C   0  0  0  0  0  0
    1.5648    0.0250    0.0376 C   0  0  0  0  0  0
    2.0274   -1.3756    0.0328 N   0  0  0  0  0  0
    1.8585   -2.2868    1.1170 C   0  0  0  0  0  0
    1.3574   -1.9974    2.2040 O   0  0  0  0  0  0
    2.4154   -3.6479    0.6721 C   0  0  0  0  0  0
    3.5263   -4.0557    1.6524 C   0  0  0  0  0  0
    4.8964   -3.8597    1.3487 C   0  0  0  0  0  0
    5.8954   -4.2419    2.2649 C   0  0  0  0  0  0
    5.5409   -4.8219    3.4966 C   0  0  0  0  0  0
    4.1845   -5.0167    3.8136 C   0  0  0  0  0  0
    3.1854   -4.6335    2.8990 C   0  0  0  0  0  0
    1.3467   -4.7484    0.5276 C   0  0  0  0  0  0
    1.7564   -6.0115    0.0391 C   0  0  0  0  0  0
    0.8336   -7.0624   -0.1207 C   0  0  0  0  0  0
   -0.5204   -6.8644    0.2031 C   0  0  0  0  0  0
   -0.9476   -5.6142    0.6850 C   0  0  0  0  0  0
   -0.0243   -4.5630    0.8461 C   0  0  0  0  0  0
    2.9129   -3.2910   -0.6644 N   0  3  0  0  0  0
    2.6507   -2.0143   -0.9718 C   0  0  0  0  0  0
    2.9827   -1.4658   -2.1514 N   0  0  0  0  0  0
    3.3719   -3.9528   -1.2735 H   0  0  0  0  0  0
   -2.1456   -1.1229   -2.6121 H   0  0  0  0  0  0
   -2.2830   -1.3063   -0.8683 H   0  0  0  0  0  0
   -2.4901    0.2778   -1.6160 H   0  0  0  0  0  0
    0.0811   -1.3589   -1.7142 H   0  0  0  0  0  0
   -0.0711    0.2663   -2.3140 H   0  0  0  0  0  0
   -0.4493   -0.4699    0.6219 H   0  0  0  0  0  0
    0.0923    2.2628   -0.6303 H   0  0  0  0  0  0
   -1.4939    1.6895   -0.2090 H   0  0  0  0  0  0
   -0.7461    3.1144    1.5855 H   0  0  0  0  0  0
   -0.7959    1.4680    2.2033 H   0  0  0  0  0  0
    0.7470    2.2182    1.7908 H   0  0  0  0  0  0
    2.0831    0.5910   -0.7362 H   0  0  0  0  0  0
    1.8763    0.4625    0.9856 H   0  0  0  0  0  0
    5.2045   -3.4137    0.4150 H   0  0  0  0  0  0
    6.9369   -4.0896    2.0221 H   0  0  0  0  0  0
    6.3081   -5.1150    4.1980 H   0  0  0  0  0  0
    3.9095   -5.4597    4.7596 H   0  0  0  0  0  0
    2.1488   -4.7871    3.1620 H   0  0  0  0  0  0
    2.7932   -6.1820   -0.2129 H   0  0  0  0  0  0
    1.1653   -8.0211   -0.4915 H   0  0  0  0  0  0
   -1.2299   -7.6698    0.0815 H   0  0  0  0  0  0
   -1.9877   -5.4600    0.9323 H   0  0  0  0  0  0
   -0.4027   -3.6230    1.2166 H   0  0  0  0  0  0
    3.4473   -2.0194   -2.8574 H   0  0  0  0  0  0
    2.7661   -0.4967   -2.3390 H   0  0  0  0  0  0
  1  2  1  0  0  0
  1 27  1  0  0  0
  1 28  1  0  0  0
  1 29  1  0  0  0
  2  3  1  0  0  0
  2 30  1  0  0  0
  2 31  1  0  0  0
  3  4  1  0  0  0
  3  6  1  0  0  0
  3 32  1  0  0  0
  4  5  1  0  0  0
  4 33  1  0  0  0
  4 34  1  0  0  0
  5 35  1  0  0  0
  5 36  1  0  0  0
  5 37  1  0  0  0
  6  7  1  0  0  0
  6 38  1  0  0  0
  6 39  1  0  0  0
  7 24  1  0  0  0
  7  8  1  0  0  0
  8  9  2  0  0  0
  8 10  1  0  0  0
 10 11  1  0  0  0
 10 17  1  0  0  0
 10 23  1  0  0  0
 11 16  1  0  0  0
 11 12  2  0  0  0
 12 13  1  0  0  0
 12 40  1  0  0  0
 13 14  2  0  0  0
 13 41  1  0  0  0
 14 15  1  0  0  0
 14 42  1  0  0  0
 15 16  2  0  0  0
 15 43  1  0  0  0
 16 44  1  0  0  0
 17 22  1  0  0  0
 17 18  2  0  0  0
 18 19  1  0  0  0
 18 45  1  0  0  0
 19 20  2  0  0  0
 19 46  1  0  0  0
 20 21  1  0  0  0
 20 47  1  0  0  0
 21 22  2  0  0  0
 21 48  1  0  0  0
 22 49  1  0  0  0
 23 26  1  0  0  0
 23 24  2  0  0  0
 24 25  1  0  0  0
 25 50  1  0  0  0
 25 51  1  0  0  0
M  CHG  1  23   1
M  END
$$$$
114
                    3D
 Schrodinger Suite 2021-2.
 51 53  0  0  1  0            999 V2000
   -2.6501    3.9060   -2.8814 C   0  0  0  0  0  0
   -2.3688    4.8258   -1.7054 C   0  0  0  0  0  0
   -1.8451    6.1133   -1.9503 C   0  0  0  0  0  0
   -1.5611    6.9833   -0.8809 C   0  0  0  0  0  0
   -1.7991    6.5703    0.4424 C   0  0  0  0  0  0
   -2.3235    5.2888    0.6942 C   0  0  0  0  0  0
   -2.6143    4.4108   -0.3720 C   0  0  0  0  0  0
   -3.1596    3.0855   -0.0670 C   0  0  0  0  0  0
   -4.5273    2.7880   -0.3605 C   0  0  0  0  0  0
   -4.8946    1.5150   -0.0168 C   0  0  0  0  0  0
   -3.5683    0.6375    0.6867 S   0  0  0  0  0  0
   -2.5070    2.0176    0.5072 C   0  0  0  0  0  0
   -1.1282    1.9422    0.9324 C   0  0  0  0  0  0
   -0.6138    0.8980    1.4744 N   0  0  0  0  0  0
    0.6893    0.9840    1.8099 N   0  0  1  0  0  0
    1.3648   -0.2994    1.9805 C   0  0  0  0  0  0
    1.2485   -0.8544    3.4095 C   0  0  0  0  0  0
    1.9700   -2.2008    3.6168 C   0  0  2  0  0  0
    1.2833   -3.3563    2.8559 C   0  0  0  0  0  0
    1.9830   -4.6377    3.0885 N   0  3  0  0  0  0
    2.0463   -5.0097    4.5165 C   0  0  0  0  0  0
    2.7586   -3.9088    5.3343 C   0  0  2  0  0  0
    2.8254   -4.2531    6.8344 C   0  0  0  0  0  0
    2.4235   -5.3789    7.2040 O   0  0  0  0  0  0
    3.3010   -3.3817    7.5945 O   0  5  0  0  0  0
    2.0654   -2.5456    5.1170 C   0  0  0  0  0  0
    2.9882   -2.0980    3.2377 H   0  0  0  0  0  0
    1.5058   -5.3695    2.5819 H   0  0  0  0  0  0
    2.9265   -4.5584    2.7374 H   0  0  0  0  0  0
    3.7891   -3.8329    4.9838 H   0  0  0  0  0  0
   -2.2173    4.2965   -3.8029 H   0  0  0  0  0  0
   -2.2258    2.9164   -2.7088 H   0  0  0  0  0  0
   -3.7247    3.8010   -3.0317 H   0  0  0  0  0  0
   -1.6555    6.4396   -2.9624 H   0  0  0  0  0  0
   -1.1593    7.9666   -1.0760 H   0  0  0  0  0  0
   -1.5803    7.2360    1.2644 H   0  0  0  0  0  0
   -2.5047    4.9792    1.7133 H   0  0  0  0  0  0
   -5.1894    3.5131   -0.8108 H   0  0  0  0  0  0
   -5.8588    1.0424   -0.1318 H   0  0  0  0  0  0
   -0.5232    2.8364    0.7692 H   0  0  0  0  0  0
    1.2107    1.7276    1.3582 H   0  0  0  0  0  0
    0.9592   -1.0067    1.2566 H   0  0  0  0  0  0
    2.4154   -0.1617    1.7240 H   0  0  0  0  0  0
    1.6662   -0.1166    4.0961 H   0  0  0  0  0  0
    0.1971   -0.9574    3.6822 H   0  0  0  0  0  0
    0.2419   -3.4549    3.1662 H   0  0  0  0  0  0
    1.2794   -3.1675    1.7829 H   0  0  0  0  0  0
    1.0314   -5.1737    4.8829 H   0  0  0  0  0  0
    2.5769   -5.9592    4.5998 H   0  0  0  0  0  0
    2.6123   -1.7563    5.6349 H   0  0  0  0  0  0
    1.0650   -2.5654    5.5531 H   0  0  0  0  0  0
  1  2  1  0  0  0
  1 31  1  0  0  0
  1 32  1  0  0  0
  1 33  1  0  0  0
  2  7  1  0  0  0
  2  3  2  0  0  0
  3  4  1  0  0  0
  3 34  1  0  0  0
  4  5  2  0  0  0
  4 35  1  0  0  0
  5  6  1  0  0  0
  5 36  1  0  0  0
  6  7  2  0  0  0
  6 37  1  0  0  0
  7  8  1  0  0  0
  8 12  2  0  0  0
  8  9  1  0  0  0
  9 10  2  0  0  0
  9 38  1  0  0  0
 10 11  1  0  0  0
 10 39  1  0  0  0
 11 12  1  0  0  0
 12 13  1  0  0  0
 13 14  2  0  0  0
 13 40  1  0  0  0
 14 15  1  0  0  0
 15 16  1  0  0  0
 15 41  1  0  0  0
 16 17  1  0  0  0
 16 42  1  0  0  0
 16 43  1  0  0  0
 17 18  1  0  0  0
 17 44  1  0  0  0
 17 45  1  0  0  0
 18 27  1  0  0  0
 18 26  1  0  0  0
 18 19  1  0  0  0
 19 20  1  0  0  0
 19 46  1  0  0  0
 19 47  1  0  0  0
 20 28  1  0  0  0
 20 29  1  0  0  0
 20 21  1  0  0  0
 21 22  1  0  0  0
 21 48  1  0  0  0
 21 49  1  0  0  0
 22 30  1  0  0  0
 22 23  1  0  0  0
 22 26  1  0  0  0
 23 24  2  0  0  0
 23 25  1  0  0  0
 26 50  1  0  0  0
 26 51  1  0  0  0
M  CHG  2  20   1  25  -1
M  END
$$$$
115
                    3D
 Schrodinger Suite 2021-2.
 52 54  0  0  1  0            999 V2000
   -1.7525    0.8405   -2.2988 C   0  0  0  0  0  0
   -2.5998    1.0548   -1.0549 C   0  0  0  0  0  0
   -3.9970    1.1888   -1.2051 C   0  0  0  0  0  0
   -4.8242    1.3641   -0.0807 C   0  0  0  0  0  0
   -4.2582    1.4041    1.2055 C   0  0  0  0  0  0
   -2.8662    1.2739    1.3634 C   0  0  0  0  0  0
   -2.0224    1.1055    0.2421 C   0  0  0  0  0  0
   -0.5677    0.9906    0.4621 C   0  0  0  0  0  0
   -0.1012   -0.0046    1.2407 C   0  0  0  0  0  0
    1.2278   -0.1505    1.5246 O   0  0  0  0  0  0
    1.5922   -1.4460    1.9718 C   0  0  0  0  0  0
    3.1156   -1.5838    1.8224 C   0  0  0  0  0  0
    3.5912   -1.1717    0.4770 N   0  3  1  0  0  0
    5.0637   -1.0018    0.4120 C   0  0  0  0  0  0
    5.4742   -0.2675   -0.8781 C   0  0  0  0  0  0
    4.6929   -0.7516   -2.0838 C   0  0  0  0  0  0
    3.6075   -1.5386   -1.9801 C   0  0  0  0  0  0
    2.7753   -1.9826   -3.2082 C   0  0  0  0  0  0
    3.1010   -3.0745   -3.7211 O   0  0  0  0  0  0
    1.8249   -1.2321   -3.5181 O   0  5  0  0  0  0
    3.0924   -2.0274   -0.6333 C   0  0  0  0  0  0
    0.3582    1.9529   -0.1699 C   0  0  0  0  0  0
    1.4441    1.4900   -0.9478 C   0  0  0  0  0  0
    2.3284    2.3966   -1.5613 C   0  0  0  0  0  0
    2.1340    3.7811   -1.4038 C   0  0  0  0  0  0
    1.0544    4.2543   -0.6341 C   0  0  0  0  0  0
    0.1692    3.3463   -0.0200 C   0  0  0  0  0  0
   -0.8580    3.8235    0.7233 F   0  0  0  0  0  0
    3.2033   -0.2522    0.3193 H   0  0  0  0  0  0
   -2.3687    0.5559   -3.1521 H   0  0  0  0  0  0
   -1.2217    1.7562   -2.5599 H   0  0  0  0  0  0
   -1.0218    0.0460   -2.1428 H   0  0  0  0  0  0
   -4.4431    1.1531   -2.1882 H   0  0  0  0  0  0
   -5.8923    1.4650   -0.2054 H   0  0  0  0  0  0
   -4.8904    1.5377    2.0709 H   0  0  0  0  0  0
   -2.4430    1.3148    2.3567 H   0  0  0  0  0  0
   -0.7297   -0.7473    1.7137 H   0  0  0  0  0  0
    1.2990   -1.5752    3.0145 H   0  0  0  0  0  0
    1.0823   -2.2216    1.3976 H   0  0  0  0  0  0
    3.5879   -0.9451    2.5699 H   0  0  0  0  0  0
    3.4319   -2.6054    2.0370 H   0  0  0  0  0  0
    5.4242   -0.4396    1.2740 H   0  0  0  0  0  0
    5.5366   -1.9841    0.4551 H   0  0  0  0  0  0
    5.2914    0.8025   -0.7737 H   0  0  0  0  0  0
    6.5418   -0.3928   -1.0598 H   0  0  0  0  0  0
    5.0195   -0.3997   -3.0519 H   0  0  0  0  0  0
    3.4020   -3.0629   -0.4859 H   0  0  0  0  0  0
    2.0027   -2.0108   -0.6535 H   0  0  0  0  0  0
    1.5935    0.4305   -1.0900 H   0  0  0  0  0  0
    3.1510    2.0282   -2.1569 H   0  0  0  0  0  0
    2.8100    4.4793   -1.8749 H   0  0  0  0  0  0
    0.9043    5.3170   -0.5133 H   0  0  0  0  0  0
  1  2  1  0  0  0
  1 30  1  0  0  0
  1 31  1  0  0  0
  1 32  1  0  0  0
  2  7  1  0  0  0
  2  3  2  0  0  0
  3  4  1  0  0  0
  3 33  1  0  0  0
  4  5  2  0  0  0
  4 34  1  0  0  0
  5  6  1  0  0  0
  5 35  1  0  0  0
  6  7  2  0  0  0
  6 36  1  0  0  0
  7  8  1  0  0  0
  8  9  2  0  0  0
  8 22  1  0  0  0
  9 10  1  0  0  0
  9 37  1  0  0  0
 10 11  1  0  0  0
 11 12  1  0  0  0
 11 38  1  0  0  0
 11 39  1  0  0  0
 12 13  1  0  0  0
 12 40  1  0  0  0
 12 41  1  0  0  0
 13 29  1  0  0  0
 13 21  1  0  0  0
 13 14  1  0  0  0
 14 15  1  0  0  0
 14 42  1  0  0  0
 14 43  1  0  0  0
 15 16  1  0  0  0
 15 44  1  0  0  0
 15 45  1  0  0  0
 16 17  2  0  0  0
 16 46  1  0  0  0
 17 18  1  0  0  0
 17 21  1  0  0  0
 18 19  2  0  0  0
 18 20  1  0  0  0
 21 47  1  0  0  0
 21 48  1  0  0  0
 22 27  1  0  0  0
 22 23  2  0  0  0
 23 24  1  0  0  0
 23 49  1  0  0  0
 24 25  2  0  0  0
 24 50  1  0  0  0
 25 26  1  0  0  0
 25 51  1  0  0  0
 26 27  2  0  0  0
 26 52  1  0  0  0
 27 28  1  0  0  0
M  CHG  2  13   1  20  -1
M  END
$$$$
116
                    3D
 Schrodinger Suite 2021-2.
 48 50  0  0  1  0            999 V2000
    0.0686    2.2984    1.6266 C   0  0  0  0  0  0
   -0.7800    1.3797    0.8335 N   0  3  0  0  0  0
   -2.0705    1.1138    1.5063 C   0  0  0  0  0  0
   -0.0828    0.1288    0.4480 C   0  0  0  0  0  0
    0.9143    0.3480   -0.7061 C   0  0  0  0  0  0
    1.5635   -0.9001   -1.1055 N   0  0  0  0  0  0
    2.5396   -1.5294   -0.4222 C   0  0  0  0  0  0
    2.9717   -1.1613    0.6718 O   0  0  0  0  0  0
    2.9850   -2.6663   -1.2140 C   0  0  0  0  0  0
    3.9037   -3.3843   -0.7567 O   0  5  0  0  0  0
    2.2283   -2.6694   -2.3675 C   0  0  0  0  0  0
    2.2993   -3.5678   -3.5502 C   0  0  0  0  0  0
    1.2914   -3.8355   -4.2047 O   0  0  0  0  0  0
    3.6157   -4.1546   -3.9296 C   0  0  0  0  0  0
    3.6621   -5.4538   -4.4845 C   0  0  0  0  0  0
    4.8931   -6.0289   -4.8563 C   0  0  0  0  0  0
    6.0894   -5.3084   -4.6817 C   0  0  0  0  0  0
    7.2725   -5.8612   -5.0401 F   0  0  0  0  0  0
    6.0537   -4.0110   -4.1375 C   0  0  0  0  0  0
    4.8232   -3.4356   -3.7655 C   0  0  0  0  0  0
    1.2120   -1.5518   -2.3597 C   0  0  1  0  0  0
   -0.2469   -2.0026   -2.3849 C   0  0  0  0  0  0
   -0.7218   -2.9660   -1.4664 C   0  0  0  0  0  0
   -2.0720   -3.3641   -1.4888 C   0  0  0  0  0  0
   -2.9564   -2.8015   -2.4286 C   0  0  0  0  0  0
   -2.4891   -1.8416   -3.3466 C   0  0  0  0  0  0
   -1.1384   -1.4433   -3.3247 C   0  0  0  0  0  0
   -1.0078    1.8570   -0.0270 H   0  0  0  0  0  0
    0.3677    1.8379    2.5692 H   0  0  0  0  0  0
    0.9697    2.5804    1.0834 H   0  0  0  0  0  0
   -0.4718    3.2175    1.8553 H   0  0  0  0  0  0
   -1.9197    0.5686    2.4391 H   0  0  0  0  0  0
   -2.5872    2.0467    1.7340 H   0  0  0  0  0  0
   -2.7267    0.5232    0.8660 H   0  0  0  0  0  0
    0.4081   -0.3023    1.3218 H   0  0  0  0  0  0
   -0.8244   -0.6012    0.1227 H   0  0  0  0  0  0
    0.3984    0.7789   -1.5653 H   0  0  0  0  0  0
    1.6882    1.0628   -0.4259 H   0  0  0  0  0  0
    2.7535   -6.0220   -4.6235 H   0  0  0  0  0  0
    4.9185   -7.0239   -5.2752 H   0  0  0  0  0  0
    6.9699   -3.4545   -4.0063 H   0  0  0  0  0  0
    4.8170   -2.4346   -3.3594 H   0  0  0  0  0  0
    1.4203   -0.8751   -3.1904 H   0  0  0  0  0  0
   -0.0503   -3.4022   -0.7415 H   0  0  0  0  0  0
   -2.4279   -4.1018   -0.7849 H   0  0  0  0  0  0
   -3.9921   -3.1077   -2.4468 H   0  0  0  0  0  0
   -3.1666   -1.4112   -4.0692 H   0  0  0  0  0  0
   -0.7893   -0.7059   -4.0325 H   0  0  0  0  0  0
  1  2  1  0  0  0
  1 29  1  0  0  0
  1 30  1  0  0  0
  1 31  1  0  0  0
  2 28  1  0  0  0
  2  3  1  0  0  0
  2  4  1  0  0  0
  3 32  1  0  0  0
  3 33  1  0  0  0
  3 34  1  0  0  0
  4  5  1  0  0  0
  4 35  1  0  0  0
  4 36  1  0  0  0
  5  6  1  0  0  0
  5 37  1  0  0  0
  5 38  1  0  0  0
  6 21  1  0  0  0
  6  7  1  0  0  0
  7  8  2  0  0  0
  7  9  1  0  0  0
  9 10  1  0  0  0
  9 11  2  0  0  0
 11 12  1  0  0  0
 11 21  1  0  0  0
 12 13  2  0  0  0
 12 14  1  0  0  0
 14 20  1  0  0  0
 14 15  2  0  0  0
 15 16  1  0  0  0
 15 39  1  0  0  0
 16 17  2  0  0  0
 16 40  1  0  0  0
 17 18  1  0  0  0
 17 19  1  0  0  0
 19 20  2  0  0  0
 19 41  1  0  0  0
 20 42  1  0  0  0
 21 22  1  0  0  0
 21 43  1  0  0  0
 22 27  1  0  0  0
 22 23  2  0  0  0
 23 24  1  0  0  0
 23 44  1  0  0  0
 24 25  2  0  0  0
 24 45  1  0  0  0
 25 26  1  0  0  0
 25 46  1  0  0  0
 26 27  2  0  0  0
 26 47  1  0  0  0
 27 48  1  0  0  0
M  CHG  2   2   1  10  -1
M  END
$$$$
117
                    3D
 Schrodinger Suite 2021-2.
 35 36  0  0  1  0            999 V2000
   -5.6517    0.3558    1.2165 C   0  0  0  0  0  0
   -4.3835    0.7214    0.5242 C   0  0  0  0  0  0
   -4.3539    1.2142   -0.7193 N   0  0  0  0  0  0
   -3.0611    1.4803   -1.1491 N   0  0  0  0  0  0
   -2.1482    1.1713   -0.2233 C   0  0  0  0  0  0
   -0.4207    1.4073   -0.4517 S   0  0  0  0  0  0
    0.1384   -0.2953   -0.1394 C   0  0  0  0  0  0
    1.6730   -0.4019   -0.1149 C   0  0  0  0  0  0
    2.2516    0.4160    0.9455 N   0  0  0  0  0  0
    2.1981    0.1321    2.2555 C   0  0  0  0  0  0
    1.7432   -0.9199    2.7044 O   0  0  0  0  0  0
    2.7016    1.2202    3.2084 C   0  0  0  0  0  0
    1.6200    1.7134    4.1966 C   0  0  2  0  0  0
    0.3857    2.2480    3.4755 C   0  0  0  0  0  0
    0.1485    3.5639    3.5143 C   0  0  0  0  0  0
    1.3874    4.3995    4.4845 S   0  0  0  0  0  0
    2.2993    5.0838    3.5551 O   0  0  0  0  0  0
    0.7226    5.1136    5.5851 O   0  0  0  0  0  0
    2.1484    2.8488    5.1060 C   0  0  0  0  0  0
   -2.8075    0.5474    1.2838 S   0  0  0  0  0  0
   -6.3967    0.0203    0.4943 H   0  0  0  0  0  0
   -5.4731   -0.4488    1.9301 H   0  0  0  0  0  0
   -6.0454    1.2194    1.7524 H   0  0  0  0  0  0
   -0.2716   -0.6530    0.8045 H   0  0  0  0  0  0
   -0.2663   -0.9398   -0.9200 H   0  0  0  0  0  0
    1.9778   -1.4416    0.0127 H   0  0  0  0  0  0
    2.0850   -0.0725   -1.0690 H   0  0  0  0  0  0
    2.6488    1.3024    0.6690 H   0  0  0  0  0  0
    3.5509    0.8181    3.7619 H   0  0  0  0  0  0
    3.0846    2.0641    2.6314 H   0  0  0  0  0  0
    1.3072    0.8795    4.8265 H   0  0  0  0  0  0
   -0.2568    1.5649    2.9393 H   0  0  0  0  0  0
   -0.6593    4.1207    3.0632 H   0  0  0  0  0  0
    1.8056    2.7018    6.1306 H   0  0  0  0  0  0
    3.2346    2.9424    5.1189 H   0  0  0  0  0  0
  1  2  1  0  0  0
  1 21  1  0  0  0
  1 22  1  0  0  0
  1 23  1  0  0  0
  2 20  1  0  0  0
  2  3  2  0  0  0
  3  4  1  0  0  0
  4  5  2  0  0  0
  5  6  1  0  0  0
  5 20  1  0  0  0
  6  7  1  0  0  0
  7  8  1  0  0  0
  7 24  1  0  0  0
  7 25  1  0  0  0
  8  9  1  0  0  0
  8 26  1  0  0  0
  8 27  1  0  0  0
  9 10  1  0  0  0
  9 28  1  0  0  0
 10 11  2  0  0  0
 10 12  1  0  0  0
 12 13  1  0  0  0
 12 29  1  0  0  0
 12 30  1  0  0  0
 13 19  1  0  0  0
 13 14  1  0  0  0
 13 31  1  0  0  0
 14 15  2  0  0  0
 14 32  1  0  0  0
 15 16  1  0  0  0
 15 33  1  0  0  0
 16 17  2  0  0  0
 16 18  2  0  0  0
 16 19  1  0  0  0
 19 34  1  0  0  0
 19 35  1  0  0  0
M  END
$$$$
118
                    3D
 Schrodinger Suite 2021-2.
 72 73  0  0  1  0            999 V2000
   -4.2690    0.1169   -3.4671 C   0  0  0  0  0  0
   -3.7001   -1.2922   -3.4331 C   0  0  0  0  0  0
   -4.0668   -2.1357   -4.6389 C   0  0  0  0  0  0
   -2.9394   -1.7926   -2.4378 C   0  0  0  0  0  0
   -2.5131   -1.0962   -1.1573 C   0  0  0  0  0  0
   -1.0169   -0.7414   -1.1712 C   0  0  0  0  0  0
   -0.5086   -0.0900    0.1331 C   0  0  2  0  0  0
   -1.0736    1.3329    0.3134 C   0  0  0  0  0  0
    1.0375   -0.0813    0.1531 C   0  0  0  0  0  0
    1.6084    0.4347    1.4248 N   0  3  2  0  0  0
    2.9983    0.9264    1.2570 C   0  0  0  0  0  0
    3.5163    1.5869    2.5456 C   0  0  0  0  0  0
    3.4539    0.6283    3.7560 C   0  0  1  0  0  0
    3.9739    1.3061    4.9887 N   0  3  1  0  0  0
    3.4227    0.8076    6.2819 C   0  0  0  0  0  0
    3.9216    1.6436    7.4776 C   0  0  0  0  0  0
    5.4566    1.7547    7.5575 C   0  0  1  0  0  0
    6.1239    0.4720    8.0886 C   0  0  0  0  0  0
    5.9747   -0.6030    7.5079 O   0  0  0  0  0  0
    6.8608    0.6025    9.2029 N   0  0  0  0  0  0
    7.5707   -0.4787    9.8807 C   0  0  0  0  0  0
    7.7720   -0.1086   11.3561 C   0  0  0  0  0  0
    8.9088   -0.7689    9.1815 C   0  0  0  0  0  0
    6.0007    2.1882    6.1824 C   0  0  0  0  0  0
    5.4642    1.3307    5.0211 C   0  0  0  0  0  0
    1.9998    0.1069    3.8667 C   0  0  0  0  0  0
    1.5158   -0.5282    2.5519 C   0  0  0  0  0  0
    1.0516    1.2397    1.6745 H   0  0  0  0  0  0
    3.6714    2.2678    4.9248 H   0  0  0  0  0  0
   -5.3506    0.0861   -3.3342 H   0  0  0  0  0  0
   -3.8500    0.7741   -2.7083 H   0  0  0  0  0  0
   -4.0621    0.5766   -4.4338 H   0  0  0  0  0  0
   -5.1502   -2.2231   -4.7226 H   0  0  0  0  0  0
   -3.6881   -1.6764   -5.5523 H   0  0  0  0  0  0
   -3.6514   -3.1415   -4.5694 H   0  0  0  0  0  0
   -2.5757   -2.8056   -2.5331 H   0  0  0  0  0  0
   -3.1218   -0.2148   -0.9737 H   0  0  0  0  0  0
   -2.7225   -1.7748   -0.3299 H   0  0  0  0  0  0
   -0.4558   -1.6592   -1.3533 H   0  0  0  0  0  0
   -0.8023   -0.0865   -2.0173 H   0  0  0  0  0  0
   -0.8671   -0.7054    0.9575 H   0  0  0  0  0  0
   -0.7664    1.9877   -0.5026 H   0  0  0  0  0  0
   -2.1624    1.3345    0.3469 H   0  0  0  0  0  0
   -0.7336    1.7840    1.2456 H   0  0  0  0  0  0
    1.4331   -1.0811   -0.0328 H   0  0  0  0  0  0
    1.3818    0.5387   -0.6762 H   0  0  0  0  0  0
    3.6480    0.0983    0.9688 H   0  0  0  0  0  0
    3.0352    1.6548    0.4459 H   0  0  0  0  0  0
    4.5339    1.9313    2.3667 H   0  0  0  0  0  0
    2.9265    2.4806    2.7554 H   0  0  0  0  0  0
    4.0890   -0.2371    3.5567 H   0  0  0  0  0  0
    2.3360    0.8804    6.2879 H   0  0  0  0  0  0
    3.6684   -0.2470    6.4072 H   0  0  0  0  0  0
    3.5020    2.6479    7.4025 H   0  0  0  0  0  0
    3.5256    1.2279    8.4054 H   0  0  0  0  0  0
    5.6893    2.5505    8.2675 H   0  0  0  0  0  0
    6.9324    1.5203    9.6182 H   0  0  0  0  0  0
    6.9572   -1.3808    9.8457 H   0  0  0  0  0  0
    8.2755   -0.9113   11.8956 H   0  0  0  0  0  0
    8.3768    0.7929   11.4614 H   0  0  0  0  0  0
    6.8170    0.0702   11.8511 H   0  0  0  0  0  0
    9.4438   -1.5766    9.6819 H   0  0  0  0  0  0
    8.7585   -1.0718    8.1449 H   0  0  0  0  0  0
    9.5561    0.1087    9.1818 H   0  0  0  0  0  0
    5.7312    3.2306    6.0070 H   0  0  0  0  0  0
    7.0914    2.1609    6.1842 H   0  0  0  0  0  0
    5.8458    0.3115    5.0871 H   0  0  0  0  0  0
    5.8598    1.7379    4.0921 H   0  0  0  0  0  0
    1.9187   -0.6496    4.6478 H   0  0  0  0  0  0
    1.3275    0.9214    4.1406 H   0  0  0  0  0  0
    0.4876   -0.8616    2.6852 H   0  0  0  0  0  0
    2.1068   -1.4170    2.3242 H   0  0  0  0  0  0
  1  2  1  0  0  0
  1 30  1  0  0  0
  1 31  1  0  0  0
  1 32  1  0  0  0
  2  3  1  0  0  0
  2  4  2  3  0  0
  3 33  1  0  0  0
  3 34  1  0  0  0
  3 35  1  0  0  0
  4  5  1  0  0  0
  4 36  1  0  0  0
  5  6  1  0  0  0
  5 37  1  0  0  0
  5 38  1  0  0  0
  6  7  1  0  0  0
  6 39  1  0  0  0
  6 40  1  0  0  0
  7  8  1  0  0  0
  7  9  1  0  0  0
  7 41  1  0  0  0
  8 42  1  0  0  0
  8 43  1  0  0  0
  8 44  1  0  0  0
  9 10  1  0  0  0
  9 45  1  0  0  0
  9 46  1  0  0  0
 10 28  1  0  0  0
 10 27  1  0  0  0
 10 11  1  0  0  0
 11 12  1  0  0  0
 11 47  1  0  0  0
 11 48  1  0  0  0
 12 13  1  0  0  0
 12 49  1  0  0  0
 12 50  1  0  0  0
 13 14  1  0  0  0
 13 26  1  0  0  0
 13 51  1  0  0  0
 14 29  1  0  0  0
 14 25  1  0  0  0
 14 15  1  0  0  0
 15 16  1  0  0  0
 15 52  1  0  0  0
 15 53  1  0  0  0
 16 17  1  0  0  0
 16 54  1  0  0  0
 16 55  1  0  0  0
 17 18  1  0  0  0
 17 24  1  0  0  0
 17 56  1  0  0  0
 18 19  2  0  0  0
 18 20  1  0  0  0
 20 21  1  0  0  0
 20 57  1  0  0  0
 21 22  1  0  0  0
 21 23  1  0  0  0
 21 58  1  0  0  0
 22 59  1  0  0  0
 22 60  1  0  0  0
 22 61  1  0  0  0
 23 62  1  0  0  0
 23 63  1  0  0  0
 23 64  1  0  0  0
 24 25  1  0  0  0
 24 65  1  0  0  0
 24 66  1  0  0  0
 25 67  1  0  0  0
 25 68  1  0  0  0
 26 27  1  0  0  0
 26 69  1  0  0  0
 26 70  1  0  0  0
 27 71  1  0  0  0
 27 72  1  0  0  0
M  CHG  2  10   1  14   1
M  END
$$$$
119
                    3D
 Schrodinger Suite 2021-2.
 47 49  0  0  1  0            999 V2000
   -6.6930    0.0901    6.5027 C   0  0  0  0  0  0
   -7.0882    1.0352    5.0057 S   0  0  0  0  0  0
   -6.0676    0.4397    3.6873 C   0  0  0  0  0  0
   -6.1389    1.0786    2.4329 C   0  0  0  0  0  0
   -5.3396    0.6319    1.3629 C   0  0  0  0  0  0
   -4.4600   -0.4540    1.5442 C   0  0  0  0  0  0
   -3.6856   -0.8897    0.5003 O   0  0  0  0  0  0
   -2.3700   -0.4928    0.4198 C   0  0  0  0  0  0
   -1.8136    0.5579    1.1909 C   0  0  0  0  0  0
   -0.4559    0.8830    1.0102 C   0  0  0  0  0  0
    0.3018    0.1566    0.0674 C   0  0  0  0  0  0
    1.7168    0.4567   -0.1582 C   0  0  0  0  0  0
    2.5644   -0.5899   -0.3104 N   0  0  0  0  0  0
    4.0134   -0.6173   -0.5543 C   0  0  0  0  0  0
    4.5259   -2.0605   -0.6345 C   0  0  2  0  0  0
    6.0442   -2.1700   -0.7608 C   0  0  0  0  0  0
    6.2515   -3.4958   -1.4776 C   0  0  0  0  0  0
    4.8634   -3.8510   -2.0173 C   0  0  0  0  0  0
    4.0850   -2.6769   -1.8336 O   0  0  0  0  0  0
    2.0856    1.7606   -0.2016 N   0  3  0  0  0  0
    3.4186    2.0544   -0.4100 O   0  0  0  0  0  0
   -0.3473   -0.8681   -0.6550 C   0  0  0  0  0  0
   -1.6483   -1.1853   -0.4883 N   0  0  0  0  0  0
   -4.3934   -1.0998    2.7957 C   0  0  0  0  0  0
   -5.1929   -0.6545    3.8663 C   0  0  0  0  0  0
    1.5325    2.5976   -0.0806 H   0  0  0  0  0  0
   -7.2857    0.4552    7.3413 H   0  0  0  0  0  0
   -6.9177   -0.9672    6.3601 H   0  0  0  0  0  0
   -5.6380    0.1978    6.7559 H   0  0  0  0  0  0
   -6.8079    1.9143    2.2882 H   0  0  0  0  0  0
   -5.3980    1.1254    0.4039 H   0  0  0  0  0  0
   -2.4028    1.1110    1.9073 H   0  0  0  0  0  0
   -0.0066    1.6759    1.5898 H   0  0  0  0  0  0
    2.1442   -1.5071   -0.2586 H   0  0  0  0  0  0
    4.2450   -0.0833   -1.4763 H   0  0  0  0  0  0
    4.5133   -0.1007    0.2654 H   0  0  0  0  0  0
    4.1765   -2.6457    0.2188 H   0  0  0  0  0  0
    6.4312   -1.3588   -1.3793 H   0  0  0  0  0  0
    6.5496   -2.1262    0.2045 H   0  0  0  0  0  0
    6.9814   -3.3916   -2.2813 H   0  0  0  0  0  0
    6.6094   -4.2695   -0.7973 H   0  0  0  0  0  0
    4.8845   -4.1501   -3.0654 H   0  0  0  0  0  0
    4.4254   -4.6663   -1.4394 H   0  0  0  0  0  0
    3.4790    2.1486   -1.3488 H   0  0  0  0  0  0
    0.1899   -1.4470   -1.3915 H   0  0  0  0  0  0
   -3.7257   -1.9372    2.9360 H   0  0  0  0  0  0
   -5.1214   -1.1651    4.8137 H   0  0  0  0  0  0
  1  2  1  0  0  0
  1 27  1  0  0  0
  1 28  1  0  0  0
  1 29  1  0  0  0
  2  3  1  0  0  0
  3 25  1  0  0  0
  3  4  2  0  0  0
  4  5  1  0  0  0
  4 30  1  0  0  0
  5  6  2  0  0  0
  5 31  1  0  0  0
  6  7  1  0  0  0
  6 24  1  0  0  0
  7  8  1  0  0  0
  8 23  1  0  0  0
  8  9  2  0  0  0
  9 10  1  0  0  0
  9 32  1  0  0  0
 10 11  2  0  0  0
 10 33  1  0  0  0
 11 12  1  0  0  0
 11 22  1  0  0  0
 12 13  1  0  0  0
 12 20  2  0  0  0
 13 14  1  0  0  0
 13 34  1  0  0  0
 14 15  1  0  0  0
 14 35  1  0  0  0
 14 36  1  0  0  0
 15 19  1  0  0  0
 15 16  1  0  0  0
 15 37  1  0  0  0
 16 17  1  0  0  0
 16 38  1  0  0  0
 16 39  1  0  0  0
 17 18  1  0  0  0
 17 40  1  0  0  0
 17 41  1  0  0  0
 18 19  1  0  0  0
 18 42  1  0  0  0
 18 43  1  0  0  0
 20 26  1  0  0  0
 20 21  1  0  0  0
 21 44  1  0  0  0
 22 23  2  0  0  0
 22 45  1  0  0  0
 24 25  2  0  0  0
 24 46  1  0  0  0
 25 47  1  0  0  0
M  CHG  1  20   1
M  END
$$$$
120
                    3D
 Schrodinger Suite 2021-2.
 45 47  0  0  1  0            999 V2000
   -2.5166    3.1321    0.2491 C   0  0  0  0  0  0
   -2.0498    1.6729    0.2908 C   0  0  0  0  0  0
   -0.5526    1.5237   -0.0143 C   0  0  0  0  0  0
   -0.0867    0.0625    0.0244 C   0  0  0  0  0  0
    1.3608   -0.0366   -0.2578 N   0  3  0  0  0  0
    1.9111   -1.4150   -0.2781 C   0  0  2  0  0  0
    3.4412   -1.4156   -0.1031 C   0  0  0  0  0  0
    4.0006   -2.0908    0.9856 C   0  0  0  0  0  0
    3.4452   -2.7353    1.9072 O   0  5  0  0  0  0
    5.5137   -2.0721    1.1071 C   0  0  0  0  0  0
    6.0648   -2.6344    2.0586 O   0  0  0  0  0  0
    6.3139   -1.3695    0.0645 C   0  0  0  0  0  0
    7.7264   -1.3711    0.1555 C   0  0  0  0  0  0
    8.5094   -0.7190   -0.8145 C   0  0  0  0  0  0
    7.8883   -0.0574   -1.8873 C   0  0  0  0  0  0
    6.4853   -0.0482   -1.9875 C   0  0  0  0  0  0
    5.6887   -0.7006   -1.0165 C   0  0  0  0  0  0
    4.2098   -0.6731   -1.1451 C   0  0  0  0  0  0
    3.6626   -0.0568   -2.0606 O   0  0  0  0  0  0
    1.4320   -2.2551   -1.4622 C   0  0  0  0  0  0
    1.3221   -3.6556   -1.3255 C   0  0  0  0  0  0
    0.8823   -4.4107   -2.4295 C   0  0  0  0  0  0
    0.5675   -3.7406   -3.6268 C   0  0  0  0  0  0
    0.7074   -2.3395   -3.6661 C   0  0  0  0  0  0
    1.1255   -1.6072   -2.6118 N   0  0  0  0  0  0
    1.5537    0.3875   -1.1544 H   0  0  0  0  0  0
    1.8505    0.4811    0.4574 H   0  0  0  0  0  0
   -3.5839    3.2045    0.4593 H   0  0  0  0  0  0
   -1.9907    3.7357    0.9893 H   0  0  0  0  0  0
   -2.3405    3.5747   -0.7316 H   0  0  0  0  0  0
   -2.2662    1.2556    1.2749 H   0  0  0  0  0  0
   -2.6302    1.0902   -0.4257 H   0  0  0  0  0  0
   -0.3402    1.9451   -0.9979 H   0  0  0  0  0  0
    0.0232    2.1085    0.7042 H   0  0  0  0  0  0
   -0.2901   -0.3674    1.0060 H   0  0  0  0  0  0
   -0.6478   -0.5220   -0.7052 H   0  0  0  0  0  0
    1.4753   -1.8912    0.6003 H   0  0  0  0  0  0
    8.2273   -1.8735    0.9704 H   0  0  0  0  0  0
    9.5865   -0.7279   -0.7348 H   0  0  0  0  0  0
    8.4871    0.4431   -2.6338 H   0  0  0  0  0  0
    6.0303    0.4669   -2.8211 H   0  0  0  0  0  0
    1.5755   -4.1423   -0.3947 H   0  0  0  0  0  0
    0.7897   -5.4845   -2.3593 H   0  0  0  0  0  0
    0.2284   -4.2869   -4.4944 H   0  0  0  0  0  0
    0.4759   -1.7919   -4.5675 H   0  0  0  0  0  0
  1  2  1  0  0  0
  1 28  1  0  0  0
  1 29  1  0  0  0
  1 30  1  0  0  0
  2  3  1  0  0  0
  2 31  1  0  0  0
  2 32  1  0  0  0
  3  4  1  0  0  0
  3 33  1  0  0  0
  3 34  1  0  0  0
  4  5  1  0  0  0
  4 35  1  0  0  0
  4 36  1  0  0  0
  5 26  1  0  0  0
  5 27  1  0  0  0
  5  6  1  0  0  0
  6  7  1  0  0  0
  6 20  1  0  0  0
  6 37  1  0  0  0
  7 18  1  0  0  0
  7  8  2  0  0  0
  8  9  1  0  0  0
  8 10  1  0  0  0
 10 11  2  0  0  0
 10 12  1  0  0  0
 12 17  2  0  0  0
 12 13  1  0  0  0
 13 14  2  0  0  0
 13 38  1  0  0  0
 14 15  1  0  0  0
 14 39  1  0  0  0
 15 16  2  0  0  0
 15 40  1  0  0  0
 16 17  1  0  0  0
 16 41  1  0  0  0
 17 18  1  0  0  0
 18 19  2  0  0  0
 20 25  1  0  0  0
 20 21  2  0  0  0
 21 22  1  0  0  0
 21 42  1  0  0  0
 22 23  2  0  0  0
 22 43  1  0  0  0
 23 24  1  0  0  0
 23 44  1  0  0  0
 24 25  2  0  0  0
 24 45  1  0  0  0
M  CHG  2   5   1   9  -1
M  END
$$$$
121
                    3D
 Schrodinger Suite 2021-2.
 55 56  0  0  1  0            999 V2000
   -2.1639   -0.9233   -0.8292 C   0  0  0  0  0  0
   -0.8402   -0.2990   -1.2927 C   0  0  0  0  0  0
   -0.0411    0.2243   -0.1534 N   0  3  0  0  0  0
   -0.5135    1.5537    0.3141 C   0  0  0  0  0  0
   -0.2191    1.7753    1.8047 C   0  0  0  0  0  0
    1.4182    0.2050   -0.4308 C   0  0  0  0  0  0
    2.0319   -1.1832   -0.1656 C   0  0  0  0  0  0
    3.5604   -1.2418   -0.3797 C   0  0  1  0  0  0
    4.1291   -2.6332   -0.0239 C   0  0  0  0  0  0
    5.5965   -2.5882   -0.0733 N   0  0  0  0  0  0
    6.3486   -2.5761    1.0569 C   0  0  0  0  0  0
    5.8600   -2.5118    2.1859 O   0  0  0  0  0  0
    7.8436   -2.6548    0.9319 C   0  0  0  0  0  0
    8.4587   -3.7303    0.2509 C   0  0  0  0  0  0
    9.8625   -3.8076    0.1665 C   0  0  0  0  0  0
   10.6607   -2.8204    0.7755 C   0  0  0  0  0  0
   12.0103   -2.8942    0.6937 F   0  0  0  0  0  0
   10.0546   -1.7591    1.4748 C   0  0  0  0  0  0
    8.6509   -1.6808    1.5591 C   0  0  0  0  0  0
    6.0847   -2.3172   -1.4335 C   0  0  0  0  0  0
    5.5878   -0.9281   -1.8760 C   0  0  0  0  0  0
    4.0455   -0.8024   -1.7925 C   0  0  1  0  0  0
    3.3245   -1.5383   -2.9576 C   0  0  0  0  0  0
    3.5866   -0.8792   -4.3143 C   0  0  0  0  0  0
    4.1439   -1.5769   -5.1891 O   0  0  0  0  0  0
    3.2130    0.3063   -4.4547 O   0  5  0  0  0  0
   -0.1902   -0.4151    0.6138 H   0  0  0  0  0  0
    3.9921   -0.5370    0.3334 H   0  0  0  0  0  0
    3.8230    0.2607   -1.8896 H   0  0  0  0  0  0
   -2.7060   -1.3446   -1.6761 H   0  0  0  0  0  0
   -1.9883   -1.7299   -0.1169 H   0  0  0  0  0  0
   -2.8191   -0.1936   -0.3541 H   0  0  0  0  0  0
   -0.2791   -1.0699   -1.8213 H   0  0  0  0  0  0
   -1.0190    0.4943   -2.0202 H   0  0  0  0  0  0
   -0.0659    2.3430   -0.2917 H   0  0  0  0  0  0
   -1.5907    1.6415    0.1739 H   0  0  0  0  0  0
   -0.6043    2.7409    2.1329 H   0  0  0  0  0  0
   -0.6930    1.0065    2.4158 H   0  0  0  0  0  0
    0.8491    1.7611    2.0197 H   0  0  0  0  0  0
    1.5889    0.5317   -1.4572 H   0  0  0  0  0  0
    1.9342    0.9261    0.2032 H   0  0  0  0  0  0
    1.8193   -1.4571    0.8687 H   0  0  0  0  0  0
    1.5417   -1.9466   -0.7683 H   0  0  0  0  0  0
    3.7622   -2.9518    0.9531 H   0  0  0  0  0  0
    3.7677   -3.3861   -0.7254 H   0  0  0  0  0  0
    7.8560   -4.4975   -0.2136 H   0  0  0  0  0  0
   10.3267   -4.6263   -0.3633 H   0  0  0  0  0  0
   10.6661   -1.0055    1.9487 H   0  0  0  0  0  0
    8.1966   -0.8645    2.1023 H   0  0  0  0  0  0
    7.1686   -2.3342   -1.5254 H   0  0  0  0  0  0
    5.7209   -3.0911   -2.1099 H   0  0  0  0  0  0
    6.0395   -0.1747   -1.2292 H   0  0  0  0  0  0
    5.9499   -0.7050   -2.8795 H   0  0  0  0  0  0
    3.6083   -2.5901   -2.9955 H   0  0  0  0  0  0
    2.2444   -1.5205   -2.8249 H   0  0  0  0  0  0
  1  2  1  0  0  0
  1 30  1  0  0  0
  1 31  1  0  0  0
  1 32  1  0  0  0
  2  3  1  0  0  0
  2 33  1  0  0  0
  2 34  1  0  0  0
  3 27  1  0  0  0
  3  4  1  0  0  0
  3  6  1  0  0  0
  4  5  1  0  0  0
  4 35  1  0  0  0
  4 36  1  0  0  0
  5 37  1  0  0  0
  5 38  1  0  0  0
  5 39  1  0  0  0
  6  7  1  0  0  0
  6 40  1  0  0  0
  6 41  1  0  0  0
  7  8  1  0  0  0
  7 42  1  0  0  0
  7 43  1  0  0  0
  8 28  1  0  0  0
  8 22  1  0  0  0
  8  9  1  0  0  0
  9 10  1  0  0  0
  9 44  1  0  0  0
  9 45  1  0  0  0
 10 11  1  0  0  0
 10 20  1  0  0  0
 11 12  2  0  0  0
 11 13  1  0  0  0
 13 19  1  0  0  0
 13 14  2  0  0  0
 14 15  1  0  0  0
 14 46  1  0  0  0
 15 16  2  0  0  0
 15 47  1  0  0  0
 16 17  1  0  0  0
 16 18  1  0  0  0
 18 19  2  0  0  0
 18 48  1  0  0  0
 19 49  1  0  0  0
 20 21  1  0  0  0
 20 50  1  0  0  0
 20 51  1  0  0  0
 21 22  1  0  0  0
 21 52  1  0  0  0
 21 53  1  0  0  0
 22 29  1  0  0  0
 22 23  1  0  0  0
 23 24  1  0  0  0
 23 54  1  0  0  0
 23 55  1  0  0  0
 24 25  2  0  0  0
 24 26  1  0  0  0
M  CHG  2   3   1  26  -1
M  END
$$$$
122
                    3D
 Schrodinger Suite 2021-2.
 35 35  0  0  1  0            999 V2000
    0.1884    2.2263   -0.2196 O   0  0  0  0  0  0
   -0.7036    1.3907   -0.0666 C   0  0  0  0  0  0
   -0.3792   -0.1034    0.0159 C   0  0  0  0  0  0
    1.0289   -0.2997   -0.0328 O   0  0  0  0  0  0
    1.5376   -1.5422    0.0135 C   0  0  0  0  0  0
    0.8813   -2.5826    0.1008 O   0  0  0  0  0  0
    3.0663   -1.5358   -0.0554 C   0  0  0  0  0  0
    3.5984   -2.8919   -0.0445 N   0  0  0  0  0  0
    4.8803   -3.2011   -0.2884 C   0  0  0  0  0  0
    5.7466   -2.3575   -0.5199 O   0  0  0  0  0  0
    5.2155   -4.6653   -0.2146 C   0  0  0  0  0  0
    4.2954   -5.6326   -0.6852 C   0  0  0  0  0  0
    4.6126   -7.0039   -0.6418 C   0  0  0  0  0  0
    5.8556   -7.4234   -0.1335 C   0  0  0  0  0  0
    6.7810   -6.4698    0.3295 C   0  0  0  0  0  0
    6.4676   -5.0966    0.2885 C   0  0  0  0  0  0
    7.3779   -4.2036    0.7480 F   0  0  0  0  0  0
   -2.0018    1.7123    0.0353 N   0  0  0  0  0  0
   -2.5425    3.0666   -0.0315 C   0  0  0  0  0  0
   -2.8839    3.4813   -1.4729 C   0  0  0  0  0  0
   -3.4289    4.6971   -1.4605 F   0  0  0  0  0  0
   -1.7884    3.5141   -2.2314 F   0  0  0  0  0  0
   -3.7596    2.6268   -2.0027 F   0  0  0  0  0  0
   -0.7855   -0.5074    0.9450 H   0  0  0  0  0  0
   -0.8633   -0.6185   -0.8159 H   0  0  0  0  0  0
    3.3814   -1.0214   -0.9641 H   0  0  0  0  0  0
    3.4649   -0.9816    0.7949 H   0  0  0  0  0  0
    2.9496   -3.6396    0.1553 H   0  0  0  0  0  0
    3.3395   -5.3326   -1.0896 H   0  0  0  0  0  0
    3.9027   -7.7337   -1.0026 H   0  0  0  0  0  0
    6.1006   -8.4748   -0.1014 H   0  0  0  0  0  0
    7.7359   -6.7918    0.7182 H   0  0  0  0  0  0
   -2.6683    0.9629    0.1530 H   0  0  0  0  0  0
   -3.4445    3.0948    0.5803 H   0  0  0  0  0  0
   -1.8486    3.7809    0.4153 H   0  0  0  0  0  0
  1  2  2  0  0  0
  2  3  1  0  0  0
  2 18  1  0  0  0
  3  4  1  0  0  0
  3 24  1  0  0  0
  3 25  1  0  0  0
  4  5  1  0  0  0
  5  6  2  0  0  0
  5  7  1  0  0  0
  7  8  1  0  0  0
  7 26  1  0  0  0
  7 27  1  0  0  0
  8  9  1  0  0  0
  8 28  1  0  0  0
  9 10  2  0  0  0
  9 11  1  0  0  0
 11 16  1  0  0  0
 11 12  2  0  0  0
 12 13  1  0  0  0
 12 29  1  0  0  0
 13 14  2  0  0  0
 13 30  1  0  0  0
 14 15  1  0  0  0
 14 31  1  0  0  0
 15 16  2  0  0  0
 15 32  1  0  0  0
 16 17  1  0  0  0
 18 19  1  0  0  0
 18 33  1  0  0  0
 19 20  1  0  0  0
 19 34  1  0  0  0
 19 35  1  0  0  0
 20 21  1  0  0  0
 20 22  1  0  0  0
 20 23  1  0  0  0
M  END
$$$$
123
                    3D
 Schrodinger Suite 2021-2.
 55 56  0  0  1  0            999 V2000
   -2.5121   -5.0509    2.3549 C   0  0  0  0  0  0
   -2.5039   -5.8017    1.0099 C   0  0  0  0  0  0
   -1.1495   -6.4968    0.7752 C   0  0  0  0  0  0
   -2.9070   -4.9615   -0.1352 N   0  0  0  0  0  0
   -3.6727   -5.5396   -1.1761 C   0  0  0  0  0  0
   -4.3088   -4.6879   -2.1124 C   0  0  0  0  0  0
   -5.0804   -5.2121   -3.1670 C   0  0  0  0  0  0
   -5.2298   -6.6028   -3.3069 C   0  0  0  0  0  0
   -4.6053   -7.4658   -2.3894 C   0  0  0  0  0  0
   -3.8346   -6.9407   -1.3339 C   0  0  0  0  0  0
   -2.2016   -3.7551   -0.2884 C   0  0  0  0  0  0
   -2.6443   -2.5801    0.3587 C   0  0  0  0  0  0
   -1.9377   -1.3721    0.2028 C   0  0  0  0  0  0
   -0.7808   -1.3404   -0.5988 C   0  0  0  0  0  0
   -0.0825   -0.0864   -0.7459 N   0  0  0  0  0  0
    1.2498    0.0596   -0.5635 C   0  0  0  0  0  0
    1.9625    1.6777   -0.7460 S   0  0  0  0  0  0
    2.0126   -1.0018   -0.2266 N   0  3  0  0  0  0
    3.4603   -0.9787    0.0161 C   0  0  0  0  0  0
    3.9988   -2.3945    0.2810 C   0  0  0  0  0  0
    5.4360   -2.4019    0.6538 N   0  3  0  0  0  0
    5.8380   -3.6795    1.2831 C   0  0  0  0  0  0
    6.3366   -2.0419   -0.4659 C   0  0  0  0  0  0
   -0.3484   -2.4997   -1.2766 C   0  0  0  0  0  0
   -1.0588   -3.7045   -1.1167 C   0  0  0  0  0  0
    1.5528   -1.8945   -0.1148 H   0  0  0  0  0  0
    5.5558   -1.6932    1.3639 H   0  0  0  0  0  0
   -2.3376   -5.7401    3.1817 H   0  0  0  0  0  0
   -1.7352   -4.2876    2.4043 H   0  0  0  0  0  0
   -3.4744   -4.5701    2.5325 H   0  0  0  0  0  0
   -3.2585   -6.5767    1.1375 H   0  0  0  0  0  0
   -0.9313   -7.2005    1.5790 H   0  0  0  0  0  0
   -1.1391   -7.0569   -0.1598 H   0  0  0  0  0  0
   -0.3302   -5.7788    0.7393 H   0  0  0  0  0  0
   -4.2176   -3.6149   -2.0281 H   0  0  0  0  0  0
   -5.5589   -4.5449   -3.8687 H   0  0  0  0  0  0
   -5.8205   -7.0065   -4.1159 H   0  0  0  0  0  0
   -4.7145   -8.5350   -2.4958 H   0  0  0  0  0  0
   -3.3652   -7.6457   -0.6661 H   0  0  0  0  0  0
   -3.5295   -2.6033    0.9775 H   0  0  0  0  0  0
   -2.2829   -0.4800    0.7047 H   0  0  0  0  0  0
   -0.6085    0.7752   -0.7025 H   0  0  0  0  0  0
    0.8324    2.3182   -1.0592 H   0  0  0  0  0  0
    3.9478   -0.5364   -0.8524 H   0  0  0  0  0  0
    3.6614   -0.3311    0.8699 H   0  0  0  0  0  0
    3.4197   -2.8354    1.0942 H   0  0  0  0  0  0
    3.8426   -3.0326   -0.5905 H   0  0  0  0  0  0
    5.7300   -4.5106    0.5848 H   0  0  0  0  0  0
    6.8782   -3.6398    1.6088 H   0  0  0  0  0  0
    5.2274   -3.8894    2.1620 H   0  0  0  0  0  0
    6.2372   -2.7475   -1.2917 H   0  0  0  0  0  0
    6.1262   -1.0413   -0.8421 H   0  0  0  0  0  0
    7.3769   -2.0489   -0.1384 H   0  0  0  0  0  0
    0.5166   -2.4732   -1.9227 H   0  0  0  0  0  0
   -0.7258   -4.5932   -1.6332 H   0  0  0  0  0  0
  1  2  1  0  0  0
  1 28  1  0  0  0
  1 29  1  0  0  0
  1 30  1  0  0  0
  2  3  1  0  0  0
  2  4  1  0  0  0
  2 31  1  0  0  0
  3 32  1  0  0  0
  3 33  1  0  0  0
  3 34  1  0  0  0
  4  5  1  0  0  0
  4 11  1  0  0  0
  5 10  1  0  0  0
  5  6  2  0  0  0
  6  7  1  0  0  0
  6 35  1  0  0  0
  7  8  2  0  0  0
  7 36  1  0  0  0
  8  9  1  0  0  0
  8 37  1  0  0  0
  9 10  2  0  0  0
  9 38  1  0  0  0
 10 39  1  0  0  0
 11 25  1  0  0  0
 11 12  2  0  0  0
 12 13  1  0  0  0
 12 40  1  0  0  0
 13 14  2  0  0  0
 13 41  1  0  0  0
 14 15  1  0  0  0
 14 24  1  0  0  0
 15 16  1  0  0  0
 15 42  1  0  0  0
 16 17  1  0  0  0
 16 18  2  3  0  0
 17 43  1  0  0  0
 18 26  1  0  0  0
 18 19  1  0  0  0
 19 20  1  0  0  0
 19 44  1  0  0  0
 19 45  1  0  0  0
 20 21  1  0  0  0
 20 46  1  0  0  0
 20 47  1  0  0  0
 21 27  1  0  0  0
 21 22  1  0  0  0
 21 23  1  0  0  0
 22 48  1  0  0  0
 22 49  1  0  0  0
 22 50  1  0  0  0
 23 51  1  0  0  0
 23 52  1  0  0  0
 23 53  1  0  0  0
 24 25  2  0  0  0
 24 54  1  0  0  0
 25 55  1  0  0  0
M  CHG  2  18   1  21   1
M  END
$$$$
124
                    3D
 Schrodinger Suite 2021-2.
 43 43  0  0  1  0            999 V2000
   -2.1209   -0.0797   -2.1896 C   0  0  0  0  0  0
   -1.6197    1.2887   -2.0255 N   0  0  0  0  0  0
   -0.2092    1.4597   -2.3931 C   0  0  0  0  0  0
   -2.2561    2.2321   -0.7154 S   0  0  0  0  0  0
   -1.6619    3.5765   -0.7758 O   0  0  0  0  0  0
   -3.7158    2.0517   -0.6805 O   0  0  0  0  0  0
   -1.6118    1.4505    0.7439 C   0  0  0  0  0  0
   -2.2100    0.9006    1.8426 C   0  0  0  0  0  0
   -1.1609    0.3845    2.6522 C   0  0  0  0  0  0
    0.0028    0.6543    1.9880 C   0  0  0  0  0  0
    1.4385    0.3519    2.2592 C   0  0  0  0  0  0
    1.8050   -1.3679    1.8064 S   0  0  0  0  0  0
    1.4806   -1.3252    0.0185 C   0  0  0  0  0  0
    1.7599   -2.6583   -0.6686 C   0  0  0  0  0  0
    2.6363   -2.7304   -1.5290 O   0  0  0  0  0  0
    0.9915   -3.6933   -0.2839 N   0  0  0  0  0  0
    1.0155   -5.0787   -0.7666 C   0  0  0  0  0  0
   -0.0646   -5.8438    0.0184 C   0  0  0  0  0  0
    2.3883   -5.7282   -0.4928 C   0  0  0  0  0  0
    0.6770   -5.1353   -2.2711 C   0  0  0  0  0  0
   -0.2602    1.3162    0.8276 O   0  0  0  0  0  0
   -1.8224   -0.4868   -3.1559 H   0  0  0  0  0  0
   -1.7275   -0.7231   -1.4024 H   0  0  0  0  0  0
   -3.2094   -0.0963   -2.1395 H   0  0  0  0  0  0
   -0.0146    1.0292   -3.3758 H   0  0  0  0  0  0
    0.0512    2.5171   -2.4341 H   0  0  0  0  0  0
    0.4386    0.9699   -1.6672 H   0  0  0  0  0  0
   -3.2724    0.8644    2.0326 H   0  0  0  0  0  0
   -1.2468   -0.1337    3.5959 H   0  0  0  0  0  0
    2.0890    1.0225    1.6969 H   0  0  0  0  0  0
    1.6594    0.4961    3.3169 H   0  0  0  0  0  0
    0.4382   -1.0612   -0.1578 H   0  0  0  0  0  0
    2.0923   -0.5436   -0.4335 H   0  0  0  0  0  0
    0.3090   -3.4985    0.4344 H   0  0  0  0  0  0
   -1.0540   -5.4135   -0.1418 H   0  0  0  0  0  0
   -0.1101   -6.8903   -0.2854 H   0  0  0  0  0  0
    0.1333   -5.8231    1.0909 H   0  0  0  0  0  0
    3.1869   -5.2586   -1.0670 H   0  0  0  0  0  0
    2.6565   -5.6602    0.5622 H   0  0  0  0  0  0
    2.3823   -6.7850   -0.7615 H   0  0  0  0  0  0
    1.4379   -4.6493   -2.8816 H   0  0  0  0  0  0
    0.6018   -6.1666   -2.6175 H   0  0  0  0  0  0
   -0.2759   -4.6488   -2.4823 H   0  0  0  0  0  0
  1  2  1  0  0  0
  1 22  1  0  0  0
  1 23  1  0  0  0
  1 24  1  0  0  0
  2  3  1  0  0  0
  2  4  1  0  0  0
  3 25  1  0  0  0
  3 26  1  0  0  0
  3 27  1  0  0  0
  4  5  2  0  0  0
  4  6  2  0  0  0
  4  7  1  0  0  0
  7 21  1  0  0  0
  7  8  2  0  0  0
  8  9  1  0  0  0
  8 28  1  0  0  0
  9 10  2  0  0  0
  9 29  1  0  0  0
 10 11  1  0  0  0
 10 21  1  0  0  0
 11 12  1  0  0  0
 11 30  1  0  0  0
 11 31  1  0  0  0
 12 13  1  0  0  0
 13 14  1  0  0  0
 13 32  1  0  0  0
 13 33  1  0  0  0
 14 15  2  0  0  0
 14 16  1  0  0  0
 16 17  1  0  0  0
 16 34  1  0  0  0
 17 18  1  0  0  0
 17 19  1  0  0  0
 17 20  1  0  0  0
 18 35  1  0  0  0
 18 36  1  0  0  0
 18 37  1  0  0  0
 19 38  1  0  0  0
 19 39  1  0  0  0
 19 40  1  0  0  0
 20 41  1  0  0  0
 20 42  1  0  0  0
 20 43  1  0  0  0
M  END
$$$$
125
                    3D
 Schrodinger Suite 2021-2.
 41 42  0  0  1  0            999 V2000
   -7.3747   -4.8778    1.3432 C   0  0  0  0  0  0
   -6.8514   -4.3509    0.0079 C   0  0  0  0  0  0
   -7.4297   -4.6841   -1.0260 O   0  0  0  0  0  0
   -5.6620   -3.4525    0.0321 C   0  0  0  0  0  0
   -5.0039   -3.1196    1.2398 C   0  0  0  0  0  0
   -3.8817   -2.2691    1.2321 C   0  0  0  0  0  0
   -3.3960   -1.7363    0.0175 C   0  0  0  0  0  0
   -2.2588   -0.8771    0.0095 N   0  0  0  0  0  0
   -1.0568   -1.2216    0.5312 C   0  0  0  0  0  0
   -0.7633   -2.2925    1.0647 O   0  0  0  0  0  0
   -0.2149   -0.0747    0.3020 C   0  0  0  0  0  0
    1.4698   -0.1924    0.8400 S   0  0  0  0  0  0
    2.4351    0.3941   -0.5822 C   0  0  0  0  0  0
    2.2694   -0.5183   -1.8042 C   0  0  0  0  0  0
    3.0563   -0.0332   -2.8702 O   0  0  0  0  0  0
   -0.9270    0.8625   -0.3168 C   0  0  0  0  0  0
   -0.5835    2.5114   -0.8673 S   0  0  0  0  0  0
    0.2301    3.2928    0.5558 C   0  0  0  0  0  0
   -0.7014    3.3800    1.7717 C   0  0  0  0  0  0
   -0.0369    4.0252    2.8359 O   0  0  0  0  0  0
   -2.2650    0.3685   -0.5235 C   0  0  0  0  0  0
   -3.2207    0.9424   -1.0479 O   0  0  0  0  0  0
   -4.0497   -2.0672   -1.1897 C   0  0  0  0  0  0
   -5.1715   -2.9177   -1.1811 C   0  0  0  0  0  0
   -7.6401   -4.0516    2.0032 H   0  0  0  0  0  0
   -8.2643   -5.4891    1.1892 H   0  0  0  0  0  0
   -6.6197   -5.4927    1.8337 H   0  0  0  0  0  0
   -5.3430   -3.5068    2.1888 H   0  0  0  0  0  0
   -3.3964   -2.0257    2.1661 H   0  0  0  0  0  0
    2.1462    1.4145   -0.8282 H   0  0  0  0  0  0
    3.4838    0.4296   -0.2849 H   0  0  0  0  0  0
    2.5778   -1.5373   -1.5678 H   0  0  0  0  0  0
    1.2284   -0.5563   -2.1260 H   0  0  0  0  0  0
    2.9510   -0.6117   -3.6102 H   0  0  0  0  0  0
    1.1349    2.7437    0.8110 H   0  0  0  0  0  0
    0.5446    4.2929    0.2558 H   0  0  0  0  0  0
   -1.6056    3.9370    1.5245 H   0  0  0  0  0  0
   -1.0077    2.3870    2.1012 H   0  0  0  0  0  0
   -0.6258    4.0719    3.5738 H   0  0  0  0  0  0
   -3.6913   -1.6733   -2.1297 H   0  0  0  0  0  0
   -5.6507   -3.1544   -2.1203 H   0  0  0  0  0  0
  1  2  1  0  0  0
  1 25  1  0  0  0
  1 26  1  0  0  0
  1 27  1  0  0  0
  2  3  2  0  0  0
  2  4  1  0  0  0
  4 24  1  0  0  0
  4  5  2  0  0  0
  5  6  1  0  0  0
  5 28  1  0  0  0
  6  7  2  0  0  0
  6 29  1  0  0  0
  7  8  1  0  0  0
  7 23  1  0  0  0
  8 21  1  0  0  0
  8  9  1  0  0  0
  9 10  2  0  0  0
  9 11  1  0  0  0
 11 12  1  0  0  0
 11 16  2  0  0  0
 12 13  1  0  0  0
 13 14  1  0  0  0
 13 30  1  0  0  0
 13 31  1  0  0  0
 14 15  1  0  0  0
 14 32  1  0  0  0
 14 33  1  0  0  0
 15 34  1  0  0  0
 16 17  1  0  0  0
 16 21  1  0  0  0
 17 18  1  0  0  0
 18 19  1  0  0  0
 18 35  1  0  0  0
 18 36  1  0  0  0
 19 20  1  0  0  0
 19 37  1  0  0  0
 19 38  1  0  0  0
 20 39  1  0  0  0
 21 22  2  0  0  0
 23 24  2  0  0  0
 23 40  1  0  0  0
 24 41  1  0  0  0
M  END
$$$$
126
                    3D
 Schrodinger Suite 2021-2.
 63 66  0  0  1  0            999 V2000
   -4.3974    1.3136    0.8693 C   0  0  0  0  0  0
   -2.9804    1.3338    0.8752 O   0  0  0  0  0  0
   -2.3191    1.6896   -0.2385 C   0  0  0  0  0  0
   -2.8296    2.0147   -1.3106 O   0  0  0  0  0  0
   -0.8028    1.6583   -0.0585 C   0  0  0  0  0  0
   -0.2622    0.2247    0.0656 C   0  0  0  0  0  0
    1.2670    0.1964    0.2286 C   0  0  0  0  0  0
    1.8873   -1.2284    0.1788 C   0  0  2  0  0  0
    1.5003   -2.1131    1.3971 C   0  0  1  0  0  0
    1.6955   -3.6165    1.1140 C   0  0  0  0  0  0
    1.3005   -4.4432    2.3438 C   0  0  0  0  0  0
    2.0956   -4.0032    3.5816 C   0  0  0  0  0  0
    1.9186   -2.5500    3.8458 N   0  3  1  0  0  0
    2.5823   -2.0889    5.0935 C   0  0  0  0  0  0
    4.1090   -1.9571    4.9245 C   0  0  0  0  0  0
    4.4662   -1.0662    3.7246 C   0  0  0  0  0  0
    3.7749   -1.5801    2.4502 C   0  0  2  0  0  0
    4.0856   -0.7034    1.2243 C   0  0  0  0  0  0
    3.3777   -1.2108    0.0205 N   0  3  2  0  0  0
    3.8992   -0.6191   -1.2417 C   0  0  0  0  0  0
    3.3466   -1.2983   -2.4828 C   0  0  0  0  0  0
    2.3437   -0.6717   -3.2537 C   0  0  0  0  0  0
    1.8272   -1.3123   -4.3968 C   0  0  0  0  0  0
    2.3121   -2.5794   -4.7749 C   0  0  0  0  0  0
    3.3153   -3.2058   -4.0102 C   0  0  0  0  0  0
    3.7816   -4.4242   -4.3716 F   0  0  0  0  0  0
    3.8322   -2.5661   -2.8668 C   0  0  0  0  0  0
    2.2482   -1.6759    2.6813 C   0  0  1  0  0  0
    1.4719   -1.7179   -0.7019 H   0  0  0  0  0  0
    0.4345   -1.9924    1.5863 H   0  0  0  0  0  0
    0.9277   -2.4346    4.0059 H   0  0  0  0  0  0
    4.1699   -2.5743    2.2398 H   0  0  0  0  0  0
    3.6392   -2.1846   -0.0414 H   0  0  0  0  0  0
    1.8897   -0.6799    2.9451 H   0  0  0  0  0  0
   -4.7674    1.0262    1.8533 H   0  0  0  0  0  0
   -4.8002    2.2982    0.6281 H   0  0  0  0  0  0
   -4.7729    0.5936    0.1412 H   0  0  0  0  0  0
   -0.3398    2.1610   -0.9083 H   0  0  0  0  0  0
   -0.5443    2.2365    0.8289 H   0  0  0  0  0  0
   -0.7405   -0.2658    0.9129 H   0  0  0  0  0  0
   -0.5422   -0.3438   -0.8226 H   0  0  0  0  0  0
    1.6763    0.8050   -0.5755 H   0  0  0  0  0  0
    1.5394    0.7096    1.1502 H   0  0  0  0  0  0
    1.0877   -3.9202    0.2608 H   0  0  0  0  0  0
    2.7301   -3.8302    0.8444 H   0  0  0  0  0  0
    0.2320   -4.3331    2.5347 H   0  0  0  0  0  0
    1.4716   -5.5026    2.1500 H   0  0  0  0  0  0
    1.7558   -4.5705    4.4489 H   0  0  0  0  0  0
    3.1499   -4.2450    3.4475 H   0  0  0  0  0  0
    2.1638   -1.1188    5.3654 H   0  0  0  0  0  0
    2.3446   -2.7642    5.9161 H   0  0  0  0  0  0
    4.5455   -1.5431    5.8339 H   0  0  0  0  0  0
    4.5575   -2.9427    4.7967 H   0  0  0  0  0  0
    4.1583   -0.0394    3.9276 H   0  0  0  0  0  0
    5.5479   -1.0453    3.5873 H   0  0  0  0  0  0
    3.8204    0.3382    1.4082 H   0  0  0  0  0  0
    5.1615   -0.7208    1.0451 H   0  0  0  0  0  0
    3.7168    0.4547   -1.2790 H   0  0  0  0  0  0
    4.9836   -0.7341   -1.2641 H   0  0  0  0  0  0
    1.9643    0.2994   -2.9710 H   0  0  0  0  0  0
    1.0583   -0.8316   -4.9840 H   0  0  0  0  0  0
    1.9152   -3.0702   -5.6516 H   0  0  0  0  0  0
    4.6002   -3.0534   -2.2839 H   0  0  0  0  0  0
  1  2  1  0  0  0
  1 35  1  0  0  0
  1 36  1  0  0  0
  1 37  1  0  0  0
  2  3  1  0  0  0
  3  4  2  0  0  0
  3  5  1  0  0  0
  5  6  1  0  0  0
  5 38  1  0  0  0
  5 39  1  0  0  0
  6  7  1  0  0  0
  6 40  1  0  0  0
  6 41  1  0  0  0
  7  8  1  0  0  0
  7 42  1  0  0  0
  7 43  1  0  0  0
  8 29  1  0  0  0
  8 19  1  0  0  0
  8  9  1  0  0  0
  9 30  1  0  0  0
  9 28  1  0  0  0
  9 10  1  0  0  0
 10 11  1  0  0  0
 10 44  1  0  0  0
 10 45  1  0  0  0
 11 12  1  0  0  0
 11 46  1  0  0  0
 11 47  1  0  0  0
 12 13  1  0  0  0
 12 48  1  0  0  0
 12 49  1  0  0  0
 13 31  1  0  0  0
 13 28  1  0  0  0
 13 14  1  0  0  0
 14 15  1  0  0  0
 14 50  1  0  0  0
 14 51  1  0  0  0
 15 16  1  0  0  0
 15 52  1  0  0  0
 15 53  1  0  0  0
 16 17  1  0  0  0
 16 54  1  0  0  0
 16 55  1  0  0  0
 17 32  1  0  0  0
 17 18  1  0  0  0
 17 28  1  0  0  0
 18 19  1  0  0  0
 18 56  1  0  0  0
 18 57  1  0  0  0
 19 33  1  0  0  0
 19 20  1  0  0  0
 20 21  1  0  0  0
 20 58  1  0  0  0
 20 59  1  0  0  0
 21 27  1  0  0  0
 21 22  2  0  0  0
 22 23  1  0  0  0
 22 60  1  0  0  0
 23 24  2  0  0  0
 23 61  1  0  0  0
 24 25  1  0  0  0
 24 62  1  0  0  0
 25 26  1  0  0  0
 25 27  2  0  0  0
 27 63  1  0  0  0
 28 34  1  0  0  0
M  CHG  2  13   1  19   1
M  END
$$$$
127
                    3D
 Schrodinger Suite 2021-2.
 45 47  0  0  1  0            999 V2000
   -5.8329    1.7680    0.4735 O   0  0  0  0  0  0
   -4.7891    1.2844   -0.0178 C   0  0  0  0  0  0
   -4.7487    0.2522   -0.7229 O   0  5  0  0  0  0
   -3.4688    2.0348    0.2495 C   0  0  1  0  0  0
   -3.4409    2.5988    1.6883 C   0  0  0  0  0  0
   -2.1646    3.2924    1.9579 N   0  3  0  0  0  0
   -0.9842    2.4238    1.7703 C   0  0  0  0  0  0
   -0.9243    1.8808    0.3275 C   0  0  1  0  0  0
    0.2926    0.9631    0.1019 C   0  0  0  0  0  0
    1.5825    1.6305    0.2714 N   0  0  2  0  0  0
    2.0278    2.2953   -0.8141 N   0  0  0  0  0  0
    3.2925    2.5097   -0.8600 C   0  0  0  0  0  0
    3.9218    3.2022   -1.9531 C   0  0  0  0  0  0
    3.4193    3.7412   -3.1053 C   0  0  0  0  0  0
    4.5282    4.2980   -3.8010 C   0  0  0  0  0  0
    5.6328    4.0629   -3.0272 C   0  0  0  0  0  0
    7.0492    4.3831   -3.1907 C   0  0  0  0  0  0
    7.5048    5.0383   -4.3572 C   0  0  0  0  0  0
    8.8684    5.3497   -4.5221 C   0  0  0  0  0  0
    9.7955    5.0087   -3.5204 C   0  0  0  0  0  0
    9.3560    4.3557   -2.3539 C   0  0  0  0  0  0
   10.4883    3.9349   -1.1218 Cl  0  0  0  0  0  0
    7.9915    4.0456   -2.1915 C   0  0  0  0  0  0
    5.2684    3.3930   -1.8953 O   0  0  0  0  0  0
   -2.2330    1.1392   -0.0049 C   0  0  0  0  0  0
   -3.4362    2.8711   -0.4502 H   0  0  0  0  0  0
   -2.0893    4.0785    1.3283 H   0  0  0  0  0  0
   -2.1737    3.6339    2.9083 H   0  0  0  0  0  0
   -0.8396    2.7284   -0.3547 H   0  0  0  0  0  0
   -4.2500    3.3130    1.8453 H   0  0  0  0  0  0
   -3.5725    1.7997    2.4197 H   0  0  0  0  0  0
   -0.0921    3.0070    1.9997 H   0  0  0  0  0  0
   -1.0227    1.6040    2.4891 H   0  0  0  0  0  0
    0.2553    0.1216    0.7942 H   0  0  0  0  0  0
    0.2525    0.5336   -0.9005 H   0  0  0  0  0  0
    2.2921    1.1280    0.7938 H   0  0  0  0  0  0
    3.9505    2.1677   -0.0587 H   0  0  0  0  0  0
    2.3834    3.7357   -3.4112 H   0  0  0  0  0  0
    4.5156    4.8088   -4.7522 H   0  0  0  0  0  0
    6.8096    5.3078   -5.1385 H   0  0  0  0  0  0
    9.2032    5.8506   -5.4186 H   0  0  0  0  0  0
   10.8411    5.2475   -3.6478 H   0  0  0  0  0  0
    7.6753    3.5449   -1.2880 H   0  0  0  0  0  0
   -2.3007    0.2323    0.5986 H   0  0  0  0  0  0
   -2.2090    0.8181   -1.0475 H   0  0  0  0  0  0
  1  2  2  0  0  0
  2  3  1  0  0  0
  2  4  1  0  0  0
  4 26  1  0  0  0
  4 25  1  0  0  0
  4  5  1  0  0  0
  5  6  1  0  0  0
  5 30  1  0  0  0
  5 31  1  0  0  0
  6 27  1  0  0  0
  6 28  1  0  0  0
  6  7  1  0  0  0
  7  8  1  0  0  0
  7 32  1  0  0  0
  7 33  1  0  0  0
  8 29  1  0  0  0
  8  9  1  0  0  0
  8 25  1  0  0  0
  9 10  1  0  0  0
  9 34  1  0  0  0
  9 35  1  0  0  0
 10 11  1  0  0  0
 10 36  1  0  0  0
 11 12  2  0  0  0
 12 13  1  0  0  0
 12 37  1  0  0  0
 13 24  1  0  0  0
 13 14  2  0  0  0
 14 15  1  0  0  0
 14 38  1  0  0  0
 15 16  2  0  0  0
 15 39  1  0  0  0
 16 17  1  0  0  0
 16 24  1  0  0  0
 17 23  1  0  0  0
 17 18  2  0  0  0
 18 19  1  0  0  0
 18 40  1  0  0  0
 19 20  2  0  0  0
 19 41  1  0  0  0
 20 21  1  0  0  0
 20 42  1  0  0  0
 21 22  1  0  0  0
 21 23  2  0  0  0
 23 43  1  0  0  0
 25 44  1  0  0  0
 25 45  1  0  0  0
M  CHG  2   3  -1   6   1
M  END
$$$$
128
                    3D
 Schrodinger Suite 2021-2.
 50 51  0  0  1  0            999 V2000
    1.1053    5.0573    2.6107 C   0  0  0  0  0  0
    0.3544    5.7925    1.6553 O   0  0  0  0  0  0
   -0.3877    5.0901    0.7299 C   0  0  0  0  0  0
   -1.1337    5.8453   -0.1971 C   0  0  0  0  0  0
   -1.9264    5.2095   -1.1701 C   0  0  0  0  0  0
   -1.9771    3.8052   -1.2299 C   0  0  0  0  0  0
   -1.2270    3.0269   -0.3223 C   0  0  0  0  0  0
   -1.3004    1.5282   -0.3855 C   0  0  0  0  0  0
   -2.3321    0.9586   -0.7419 O   0  0  0  0  0  0
   -0.1624    0.8830   -0.0866 N   0  0  0  0  0  0
    0.0015   -0.5633   -0.1142 C   0  0  0  0  0  0
    1.4857   -0.9350   -0.0269 C   0  0  0  0  0  0
    1.7011   -2.7641   -0.0493 S   0  0  0  0  0  0
    1.1384   -3.3058    1.1972 O   0  0  0  0  0  0
    1.2121   -3.2685   -1.3417 O   0  0  0  0  0  0
    3.4255   -2.9920   -0.0025 N   0  0  2  0  0  0
    4.1607   -2.8134    1.2653 C   0  0  0  0  0  0
    4.9027   -1.4624    1.3141 C   0  0  1  0  0  0
    5.7010   -1.3123    2.6166 C   0  0  0  0  0  0
    5.8059   -1.3031    0.0812 C   0  0  0  0  0  0
    4.9787   -1.4417   -1.2059 C   0  0  1  0  0  0
    5.8532   -1.2735   -2.4561 C   0  0  0  0  0  0
    4.2328   -2.7915   -1.2228 C   0  0  0  0  0  0
   -0.4430    3.6748    0.6617 C   0  0  0  0  0  0
    1.6293    5.7513    3.2675 H   0  0  0  0  0  0
    0.4592    4.4382    3.2346 H   0  0  0  0  0  0
    1.8556    4.4279    2.1302 H   0  0  0  0  0  0
   -1.1015    6.9244   -0.1587 H   0  0  0  0  0  0
   -2.4974    5.8003   -1.8711 H   0  0  0  0  0  0
   -2.5907    3.3306   -1.9824 H   0  0  0  0  0  0
    0.6420    1.4347    0.1739 H   0  0  0  0  0  0
   -0.5476   -1.0008    0.7206 H   0  0  0  0  0  0
   -0.4276   -0.9688   -1.0320 H   0  0  0  0  0  0
    2.0290   -0.5153   -0.8718 H   0  0  0  0  0  0
    1.9254   -0.5490    0.8917 H   0  0  0  0  0  0
    3.4782   -2.9025    2.1102 H   0  0  0  0  0  0
    4.8763   -3.6308    1.3625 H   0  0  0  0  0  0
    4.1647   -0.6611    1.2955 H   0  0  0  0  0  0
    6.4661   -2.0845    2.7046 H   0  0  0  0  0  0
    6.1992   -0.3434    2.6622 H   0  0  0  0  0  0
    5.0489   -1.3887    3.4871 H   0  0  0  0  0  0
    6.2989   -0.3304    0.1038 H   0  0  0  0  0  0
    6.5965   -2.0550    0.0987 H   0  0  0  0  0  0
    4.2439   -0.6378   -1.2199 H   0  0  0  0  0  0
    6.6243   -2.0428   -2.5074 H   0  0  0  0  0  0
    5.2546   -1.3409   -3.3650 H   0  0  0  0  0  0
    6.3501   -0.3031   -2.4607 H   0  0  0  0  0  0
    4.9521   -3.6083   -1.2932 H   0  0  0  0  0  0
    3.6004   -2.8646   -2.1073 H   0  0  0  0  0  0
    0.1100    3.0713    1.3652 H   0  0  0  0  0  0
  1  2  1  0  0  0
  1 25  1  0  0  0
  1 26  1  0  0  0
  1 27  1  0  0  0
  2  3  1  0  0  0
  3 24  1  0  0  0
  3  4  2  0  0  0
  4  5  1  0  0  0
  4 28  1  0  0  0
  5  6  2  0  0  0
  5 29  1  0  0  0
  6  7  1  0  0  0
  6 30  1  0  0  0
  7  8  1  0  0  0
  7 24  2  0  0  0
  8  9  2  0  0  0
  8 10  1  0  0  0
 10 11  1  0  0  0
 10 31  1  0  0  0
 11 12  1  0  0  0
 11 32  1  0  0  0
 11 33  1  0  0  0
 12 13  1  0  0  0
 12 34  1  0  0  0
 12 35  1  0  0  0
 13 14  2  0  0  0
 13 15  2  0  0  0
 13 16  1  0  0  0
 16 23  1  0  0  0
 16 17  1  0  0  0
 17 18  1  0  0  0
 17 36  1  0  0  0
 17 37  1  0  0  0
 18 19  1  0  0  0
 18 20  1  0  0  0
 18 38  1  0  0  0
 19 39  1  0  0  0
 19 40  1  0  0  0
 19 41  1  0  0  0
 20 21  1  0  0  0
 20 42  1  0  0  0
 20 43  1  0  0  0
 21 22  1  0  0  0
 21 23  1  0  0  0
 21 44  1  0  0  0
 22 45  1  0  0  0
 22 46  1  0  0  0
 22 47  1  0  0  0
 23 48  1  0  0  0
 23 49  1  0  0  0
 24 50  1  0  0  0
M  END
$$$$
129
                    3D
 Schrodinger Suite 2021-2.
 55 57  0  0  1  0            999 V2000
   -2.7833    2.7790   -1.8219 C   0  0  0  0  0  0
   -3.3762    1.8897   -0.7430 C   0  0  0  0  0  0
   -4.7775    1.8116   -0.5945 C   0  0  0  0  0  0
   -5.3434    0.9964    0.4055 C   0  0  0  0  0  0
   -4.5128    0.2582    1.2701 C   0  0  0  0  0  0
   -3.1138    0.3291    1.1316 C   0  0  0  0  0  0
   -2.5491    1.1290    0.1155 C   0  0  0  0  0  0
   -1.1161    1.2319   -0.0057 N   0  3  0  0  0  0
   -0.2891    0.1711   -0.1757 C   0  0  0  0  0  0
   -0.9251   -1.4957   -0.3616 S   0  0  0  0  0  0
    1.0497    0.4237   -0.2370 N   0  0  0  0  0  0
    2.0334   -0.6553   -0.4691 C   0  0  0  0  0  0
    2.2823   -0.8791   -1.9714 C   0  0  0  0  0  0
    3.1823   -2.0295   -2.2351 N   0  3  0  0  0  0
    3.1020   -2.4928   -3.6413 C   0  0  0  0  0  0
    4.0114   -3.7133   -3.8623 C   0  0  0  0  0  0
    5.3471   -3.3810   -3.5059 O   0  0  0  0  0  0
    5.4574   -3.0228   -2.1344 C   0  0  0  0  0  0
    4.5949   -1.7803   -1.8528 C   0  0  0  0  0  0
    1.6312    1.7820   -0.1082 C   0  0  0  0  0  0
    2.3003    2.0411    1.2337 C   0  0  0  0  0  0
    3.6258    2.5259    1.2594 C   0  0  0  0  0  0
    4.2705    2.7747    2.4863 C   0  0  0  0  0  0
    3.5918    2.5443    3.6975 C   0  0  0  0  0  0
    2.2685    2.0648    3.6800 C   0  0  0  0  0  0
    1.6221    1.8136    2.4539 C   0  0  0  0  0  0
    0.3493    1.3530    2.4612 F   0  0  0  0  0  0
   -0.7139    2.1242   -0.2537 H   0  0  0  0  0  0
    2.8534   -2.7973   -1.6669 H   0  0  0  0  0  0
   -3.5630    3.2405   -2.4289 H   0  0  0  0  0  0
   -2.1895    3.5758   -1.3734 H   0  0  0  0  0  0
   -2.1410    2.1989   -2.4849 H   0  0  0  0  0  0
   -5.4268    2.3790   -1.2453 H   0  0  0  0  0  0
   -6.4168    0.9430    0.5139 H   0  0  0  0  0  0
   -4.9489   -0.3577    2.0427 H   0  0  0  0  0  0
   -2.4812   -0.2259    1.8088 H   0  0  0  0  0  0
    0.2559   -2.1062   -0.4885 H   0  0  0  0  0  0
    2.9662   -0.3750    0.0194 H   0  0  0  0  0  0
    1.7201   -1.5769    0.0190 H   0  0  0  0  0  0
    1.3228   -1.0617   -2.4569 H   0  0  0  0  0  0
    2.6932    0.0199   -2.4332 H   0  0  0  0  0  0
    2.0724   -2.7553   -3.8877 H   0  0  0  0  0  0
    3.3962   -1.6831   -4.3112 H   0  0  0  0  0  0
    3.6674   -4.5683   -3.2779 H   0  0  0  0  0  0
    3.9889   -4.0137   -4.9100 H   0  0  0  0  0  0
    5.1554   -3.8589   -1.5017 H   0  0  0  0  0  0
    6.5028   -2.8138   -1.9072 H   0  0  0  0  0  0
    4.9816   -0.9264   -2.4114 H   0  0  0  0  0  0
    4.6666   -1.5296   -0.7950 H   0  0  0  0  0  0
    2.3743    1.9039   -0.8972 H   0  0  0  0  0  0
    0.8977    2.5660   -0.2898 H   0  0  0  0  0  0
    4.1574    2.7084    0.3368 H   0  0  0  0  0  0
    5.2856    3.1437    2.4982 H   0  0  0  0  0  0
    4.0849    2.7365    4.6392 H   0  0  0  0  0  0
    1.7475    1.8899    4.6099 H   0  0  0  0  0  0
  1  2  1  0  0  0
  1 30  1  0  0  0
  1 31  1  0  0  0
  1 32  1  0  0  0
  2  7  1  0  0  0
  2  3  2  0  0  0
  3  4  1  0  0  0
  3 33  1  0  0  0
  4  5  2  0  0  0
  4 34  1  0  0  0
  5  6  1  0  0  0
  5 35  1  0  0  0
  6  7  2  0  0  0
  6 36  1  0  0  0
  7  8  1  0  0  0
  8 28  1  0  0  0
  8  9  2  3  0  0
  9 10  1  0  0  0
  9 11  1  0  0  0
 10 37  1  0  0  0
 11 12  1  0  0  0
 11 20  1  0  0  0
 12 13  1  0  0  0
 12 38  1  0  0  0
 12 39  1  0  0  0
 13 14  1  0  0  0
 13 40  1  0  0  0
 13 41  1  0  0  0
 14 29  1  0  0  0
 14 19  1  0  0  0
 14 15  1  0  0  0
 15 16  1  0  0  0
 15 42  1  0  0  0
 15 43  1  0  0  0
 16 17  1  0  0  0
 16 44  1  0  0  0
 16 45  1  0  0  0
 17 18  1  0  0  0
 18 19  1  0  0  0
 18 46  1  0  0  0
 18 47  1  0  0  0
 19 48  1  0  0  0
 19 49  1  0  0  0
 20 21  1  0  0  0
 20 50  1  0  0  0
 20 51  1  0  0  0
 21 26  1  0  0  0
 21 22  2  0  0  0
 22 23  1  0  0  0
 22 52  1  0  0  0
 23 24  2  0  0  0
 23 53  1  0  0  0
 24 25  1  0  0  0
 24 54  1  0  0  0
 25 26  2  0  0  0
 25 55  1  0  0  0
 26 27  1  0  0  0
M  CHG  2   8   1  14   1
M  END
$$$$
130
                    3D
 Schrodinger Suite 2021-2.
 51 53  0  0  1  0            999 V2000
   -5.0952    2.9549    2.7186 C   0  0  0  0  0  0
   -5.6668    3.7353    1.5735 C   0  0  0  0  0  0
   -6.6952    4.7156    1.7210 C   0  0  0  0  0  0
   -7.0595    5.3020    0.5386 C   0  0  0  0  0  0
   -6.1457    4.6647   -0.7975 S   0  0  0  0  0  0
   -5.2690    3.5934    0.2649 C   0  0  0  0  0  0
   -4.2519    2.7156   -0.2693 C   0  0  0  0  0  0
   -2.5692    3.0134    0.0808 S   0  0  0  0  0  0
   -2.0851    1.6397   -0.8724 C   0  0  0  0  0  0
   -0.6860    1.3218   -0.9901 C   0  0  0  0  0  0
   -0.2539    0.3391   -1.6945 N   0  0  0  0  0  0
    1.0834    0.1657   -1.7049 N   0  0  2  0  0  0
    1.5333   -1.1708   -2.0853 C   0  0  0  0  0  0
    1.5733   -2.1557   -0.9051 C   0  0  0  0  0  0
    2.0572   -3.5686   -1.2884 C   0  0  1  0  0  0
    3.5535   -3.5909   -1.6768 C   0  0  0  0  0  0
    4.0101   -4.9616   -1.9943 N   0  3  0  0  0  0
    3.8090   -5.9123   -0.8785 C   0  0  0  0  0  0
    2.3188   -5.9855   -0.4694 C   0  0  2  0  0  0
    1.4354   -6.6813   -1.5287 C   0  0  0  0  0  0
    0.2039   -6.6998   -1.3158 O   0  0  0  0  0  0
    1.9923   -7.1865   -2.5292 O   0  5  0  0  0  0
    1.8025   -4.5660   -0.1358 C   0  0  0  0  0  0
   -3.1715    1.0069   -1.4212 C   0  0  0  0  0  0
   -4.4171    1.6181   -1.0806 C   0  0  0  0  0  0
   -5.7463    1.1131   -1.5550 C   0  0  0  0  0  0
    1.4743   -3.8930   -2.1519 H   0  0  0  0  0  0
    3.4867   -5.3003   -2.7899 H   0  0  0  0  0  0
    4.9907   -4.9376   -2.2339 H   0  0  0  0  0  0
    2.2436   -6.5976    0.4302 H   0  0  0  0  0  0
   -5.7239    3.0279    3.6062 H   0  0  0  0  0  0
   -5.0023    1.8972    2.4706 H   0  0  0  0  0  0
   -4.1037    3.3208    2.9854 H   0  0  0  0  0  0
   -7.1281    4.9561    2.6810 H   0  0  0  0  0  0
   -7.8041    6.0663    0.3723 H   0  0  0  0  0  0
    0.0066    1.9644   -0.4429 H   0  0  0  0  0  0
    1.5898    0.6289   -0.9582 H   0  0  0  0  0  0
    0.8838   -1.5546   -2.8737 H   0  0  0  0  0  0
    2.5249   -1.0668   -2.5241 H   0  0  0  0  0  0
    2.2034   -1.7547   -0.1101 H   0  0  0  0  0  0
    0.5686   -2.2275   -0.4859 H   0  0  0  0  0  0
    3.7369   -2.9662   -2.5505 H   0  0  0  0  0  0
    4.1651   -3.1921   -0.8663 H   0  0  0  0  0  0
    4.1894   -6.8929   -1.1676 H   0  0  0  0  0  0
    4.4124   -5.5911   -0.0286 H   0  0  0  0  0  0
    2.3052   -4.2123    0.7655 H   0  0  0  0  0  0
    0.7405   -4.5901    0.1126 H   0  0  0  0  0  0
   -3.1178    0.1318   -2.0522 H   0  0  0  0  0  0
   -5.6683    0.1076   -1.9693 H   0  0  0  0  0  0
   -6.4693    1.0751   -0.7397 H   0  0  0  0  0  0
   -6.1565    1.7588   -2.3315 H   0  0  0  0  0  0
  1  2  1  0  0  0
  1 31  1  0  0  0
  1 32  1  0  0  0
  1 33  1  0  0  0
  2  6  2  0  0  0
  2  3  1  0  0  0
  3  4  2  0  0  0
  3 34  1  0  0  0
  4  5  1  0  0  0
  4 35  1  0  0  0
  5  6  1  0  0  0
  6  7  1  0  0  0
  7 25  2  0  0  0
  7  8  1  0  0  0
  8  9  1  0  0  0
  9 10  1  0  0  0
  9 24  2  0  0  0
 10 11  2  0  0  0
 10 36  1  0  0  0
 11 12  1  0  0  0
 12 13  1  0  0  0
 12 37  1  0  0  0
 13 14  1  0  0  0
 13 38  1  0  0  0
 13 39  1  0  0  0
 14 15  1  0  0  0
 14 40  1  0  0  0
 14 41  1  0  0  0
 15 27  1  0  0  0
 15 23  1  0  0  0
 15 16  1  0  0  0
 16 17  1  0  0  0
 16 42  1  0  0  0
 16 43  1  0  0  0
 17 28  1  0  0  0
 17 29  1  0  0  0
 17 18  1  0  0  0
 18 19  1  0  0  0
 18 44  1  0  0  0
 18 45  1  0  0  0
 19 30  1  0  0  0
 19 20  1  0  0  0
 19 23  1  0  0  0
 20 21  2  0  0  0
 20 22  1  0  0  0
 23 46  1  0  0  0
 23 47  1  0  0  0
 24 25  1  0  0  0
 24 48  1  0  0  0
 25 26  1  0  0  0
 26 49  1  0  0  0
 26 50  1  0  0  0
 26 51  1  0  0  0
M  CHG  2  17   1  22  -1
M  END
$$$$
131
                    3D
 Schrodinger Suite 2021-2.
 38 39  0  0  1  0            999 V2000
   -1.3970   -0.0758   -2.4108 C   0  0  0  0  0  0
   -1.1158    1.3405   -2.2037 N   0  0  0  0  0  0
   -1.1776    2.0186   -3.4937 C   0  0  0  0  0  0
   -0.9512    2.0195   -0.9860 C   0  0  0  0  0  0
   -1.2510    3.3139   -0.8618 N   0  0  0  0  0  0
   -0.9449    3.5797    0.4556 C   0  0  0  0  0  0
   -1.0514    4.7789    1.1949 C   0  0  0  0  0  0
   -0.6676    4.8232    2.5511 C   0  0  0  0  0  0
   -0.8153    6.3107    3.4176 Cl  0  0  0  0  0  0
   -0.1686    3.6627    3.1856 C   0  0  0  0  0  0
    0.3100    3.6956    4.8452 Cl  0  0  0  0  0  0
   -0.0559    2.4587    2.4632 C   0  0  0  0  0  0
   -0.4452    2.4203    1.1098 C   0  0  0  0  0  0
   -0.4579    1.4206    0.1370 N   0  0  0  0  0  0
    0.0114    0.0567    0.3409 C   0  0  0  0  0  0
    1.1578   -0.1167   -0.4294 O   0  0  0  0  0  0
    1.9645   -1.2405   -0.0879 C   0  0  0  0  0  0
    3.3847   -0.9975   -0.6315 C   0  0  0  0  0  0
    4.1052   -0.1546    0.2433 O   0  0  0  0  0  0
    1.3276   -2.5414   -0.6256 C   0  0  0  0  0  0
    1.4590   -2.6482   -2.0287 O   0  0  0  0  0  0
   -2.0842   -0.4411   -1.6482 H   0  0  0  0  0  0
   -1.8681   -0.2702   -3.3755 H   0  0  0  0  0  0
   -0.4781   -0.6590   -2.3686 H   0  0  0  0  0  0
   -0.7082    3.0014   -3.4442 H   0  0  0  0  0  0
   -0.6561    1.4501   -4.2651 H   0  0  0  0  0  0
   -2.2145    2.1532   -3.8029 H   0  0  0  0  0  0
   -1.4290    5.6692    0.7141 H   0  0  0  0  0  0
    0.3282    1.5754    2.9504 H   0  0  0  0  0  0
    0.2440   -0.0724    1.3975 H   0  0  0  0  0  0
   -0.7740   -0.6507    0.0853 H   0  0  0  0  0  0
    2.0300   -1.3305    0.9984 H   0  0  0  0  0  0
    3.9319   -1.9385   -0.6953 H   0  0  0  0  0  0
    3.3594   -0.5692   -1.6342 H   0  0  0  0  0  0
    4.9652   -0.0106   -0.1207 H   0  0  0  0  0  0
    1.8337   -3.4006   -0.1848 H   0  0  0  0  0  0
    0.2778   -2.6274   -0.3477 H   0  0  0  0  0  0
    1.0769   -3.4670   -2.3057 H   0  0  0  0  0  0
  1  2  1  0  0  0
  1 22  1  0  0  0
  1 23  1  0  0  0
  1 24  1  0  0  0
  2  3  1  0  0  0
  2  4  1  0  0  0
  3 25  1  0  0  0
  3 26  1  0  0  0
  3 27  1  0  0  0
  4 14  1  0  0  0
  4  5  2  0  0  0
  5  6  1  0  0  0
  6 13  2  0  0  0
  6  7  1  0  0  0
  7  8  2  0  0  0
  7 28  1  0  0  0
  8  9  1  0  0  0
  8 10  1  0  0  0
 10 11  1  0  0  0
 10 12  2  0  0  0
 12 13  1  0  0  0
 12 29  1  0  0  0
 13 14  1  0  0  0
 14 15  1  0  0  0
 15 16  1  0  0  0
 15 30  1  0  0  0
 15 31  1  0  0  0
 16 17  1  0  0  0
 17 18  1  0  0  0
 17 20  1  0  0  0
 17 32  1  0  0  0
 18 19  1  0  0  0
 18 33  1  0  0  0
 18 34  1  0  0  0
 19 35  1  0  0  0
 20 21  1  0  0  0
 20 36  1  0  0  0
 20 37  1  0  0  0
 21 38  1  0  0  0
M  END
$$$$
132
                    3D
 Schrodinger Suite 2021-2.
 44 45  0  0  1  0            999 V2000
   -4.7936   -0.5275   -2.5450 C   0  0  0  0  0  0
   -5.0380    0.3367   -1.3925 N   0  0  1  0  0  0
   -4.5386   -0.1860    0.1744 S   0  0  0  0  0  0
   -4.9553    0.8487    1.1332 O   0  0  0  0  0  0
   -4.9703   -1.5823    0.3452 O   0  0  0  0  0  0
   -2.7552   -0.1319    0.0424 C   0  0  0  0  0  0
   -2.0131   -1.3284   -0.0209 C   0  0  0  0  0  0
   -0.6100   -1.2713   -0.1327 C   0  0  0  0  0  0
    0.0485   -0.0237   -0.1791 C   0  0  0  0  0  0
    1.5585    0.0384   -0.3024 C   0  0  0  0  0  0
    2.0039    0.3617   -1.7373 C   0  0  0  0  0  0
    3.5235    0.4243   -1.8608 C   0  0  0  0  0  0
    4.1083    1.4932   -2.0374 O   0  0  0  0  0  0
    4.1005   -0.7897   -1.7464 O   0  0  0  0  0  0
    5.5180   -0.9353   -1.7823 C   0  0  2  0  0  0
    5.8721   -2.2258   -2.5462 C   0  0  0  0  0  0
    7.3797   -2.5276   -2.5001 C   0  0  0  0  0  0
    7.8797   -2.6248   -1.0485 C   0  0  0  0  0  0
    7.5689   -1.3539   -0.2366 C   0  0  0  0  0  0
    6.0946   -0.9653   -0.3563 C   0  0  0  0  0  0
    5.4284   -0.6712    0.6359 O   0  0  0  0  0  0
   -0.7030    1.1692   -0.1153 C   0  0  0  0  0  0
   -2.1060    1.1174   -0.0058 C   0  0  0  0  0  0
   -5.2387   -0.0896   -3.4383 H   0  0  0  0  0  0
   -3.7224   -0.6439   -2.7100 H   0  0  0  0  0  0
   -5.2348   -1.5110   -2.3830 H   0  0  0  0  0  0
   -4.8095    1.3153   -1.5657 H   0  0  0  0  0  0
   -2.5090   -2.2870    0.0126 H   0  0  0  0  0  0
   -0.0419   -2.1887   -0.1832 H   0  0  0  0  0  0
    1.9341    0.7953    0.3879 H   0  0  0  0  0  0
    1.9849   -0.9114    0.0241 H   0  0  0  0  0  0
    1.6271   -0.3945   -2.4266 H   0  0  0  0  0  0
    1.5844    1.3171   -2.0540 H   0  0  0  0  0  0
    5.9774   -0.0958   -2.3063 H   0  0  0  0  0  0
    5.3204   -3.0682   -2.1257 H   0  0  0  0  0  0
    5.5492   -2.1371   -3.5840 H   0  0  0  0  0  0
    7.5890   -3.4583   -3.0282 H   0  0  0  0  0  0
    7.9269   -1.7432   -3.0245 H   0  0  0  0  0  0
    7.4221   -3.4874   -0.5620 H   0  0  0  0  0  0
    8.9545   -2.8071   -1.0425 H   0  0  0  0  0  0
    7.8262   -1.5018    0.8125 H   0  0  0  0  0  0
    8.1730   -0.5224   -0.6005 H   0  0  0  0  0  0
   -0.2043    2.1267   -0.1526 H   0  0  0  0  0  0
   -2.6786    2.0320    0.0401 H   0  0  0  0  0  0
  1  2  1  0  0  0
  1 24  1  0  0  0
  1 25  1  0  0  0
  1 26  1  0  0  0
  2  3  1  0  0  0
  2 27  1  0  0  0
  3  4  2  0  0  0
  3  5  2  0  0  0
  3  6  1  0  0  0
  6 23  1  0  0  0
  6  7  2  0  0  0
  7  8  1  0  0  0
  7 28  1  0  0  0
  8  9  2  0  0  0
  8 29  1  0  0  0
  9 10  1  0  0  0
  9 22  1  0  0  0
 10 11  1  0  0  0
 10 30  1  0  0  0
 10 31  1  0  0  0
 11 12  1  0  0  0
 11 32  1  0  0  0
 11 33  1  0  0  0
 12 13  2  0  0  0
 12 14  1  0  0  0
 14 15  1  0  0  0
 15 20  1  0  0  0
 15 16  1  0  0  0
 15 34  1  0  0  0
 16 17  1  0  0  0
 16 35  1  0  0  0
 16 36  1  0  0  0
 17 18  1  0  0  0
 17 37  1  0  0  0
 17 38  1  0  0  0
 18 19  1  0  0  0
 18 39  1  0  0  0
 18 40  1  0  0  0
 19 20  1  0  0  0
 19 41  1  0  0  0
 19 42  1  0  0  0
 20 21  2  0  0  0
 22 23  2  0  0  0
 22 43  1  0  0  0
 23 44  1  0  0  0
M  END
$$$$
133
                    3D
 Schrodinger Suite 2021-2.
 50 51  0  0  1  0            999 V2000
   -2.1648    0.5019    3.6957 C   0  0  0  0  0  0
   -0.9338    0.6735    3.0156 O   0  0  0  0  0  0
   -0.9271    0.0548    1.7402 C   0  0  0  0  0  0
    0.4395    0.2828    1.0844 C   0  0  0  0  0  0
    0.5293   -0.3401   -0.3147 C   0  0  0  0  0  0
    1.8570   -0.1343   -0.8802 N   0  0  0  0  0  0
    2.5071   -1.0008   -1.6725 C   0  0  0  0  0  0
    2.0259   -2.0814   -2.0133 O   0  0  0  0  0  0
    3.8828   -0.5338   -2.1875 C   0  0  2  0  0  0
    4.3701   -1.3007   -3.4376 C   0  0  0  0  0  0
    4.8847   -2.7086   -3.0889 C   0  0  0  0  0  0
    5.9594   -2.6660   -1.9912 C   0  0  0  0  0  0
    5.5065   -1.9007   -0.8137 N   0  0  3  0  0  0
    5.2839   -2.6657    0.7346 S   0  0  0  0  0  0
    6.2726   -3.7497    0.8451 O   0  0  0  0  0  0
    5.2376   -1.6074    1.7560 O   0  0  0  0  0  0
    3.6639   -3.4161    0.6183 C   0  0  0  0  0  0
    2.5977   -2.9152    1.3924 C   0  0  0  0  0  0
    1.3276   -3.5160    1.2995 C   0  0  0  0  0  0
    1.1221   -4.6107    0.4340 C   0  0  0  0  0  0
   -0.2499   -5.2422    0.3264 C   0  0  0  0  0  0
    2.1978   -5.1162   -0.3267 C   0  0  0  0  0  0
    3.4714   -4.5230   -0.2316 C   0  0  0  0  0  0
    4.9818   -0.5483   -1.0964 C   0  0  0  0  0  0
   -2.1225    1.0036    4.6623 H   0  0  0  0  0  0
   -2.9918    0.9322    3.1295 H   0  0  0  0  0  0
   -2.3735   -0.5539    3.8734 H   0  0  0  0  0  0
   -1.1196   -1.0146    1.8421 H   0  0  0  0  0  0
   -1.7178    0.4754    1.1168 H   0  0  0  0  0  0
    0.6364    1.3538    1.0207 H   0  0  0  0  0  0
    1.2172   -0.1370    1.7234 H   0  0  0  0  0  0
    0.2865   -1.4018   -0.2591 H   0  0  0  0  0  0
   -0.2063    0.1159   -0.9779 H   0  0  0  0  0  0
    2.3145    0.7385   -0.6593 H   0  0  0  0  0  0
    3.7391    0.5044   -2.4908 H   0  0  0  0  0  0
    3.5757   -1.3683   -4.1821 H   0  0  0  0  0  0
    5.1742   -0.7355   -3.9100 H   0  0  0  0  0  0
    4.0648   -3.3519   -2.7748 H   0  0  0  0  0  0
    5.2975   -3.1764   -3.9829 H   0  0  0  0  0  0
    6.2418   -3.6781   -1.7034 H   0  0  0  0  0  0
    6.8618   -2.1933   -2.3803 H   0  0  0  0  0  0
    2.7424   -2.0732    2.0524 H   0  0  0  0  0  0
    0.5093   -3.1276    1.8880 H   0  0  0  0  0  0
   -0.3705   -5.7565   -0.6275 H   0  0  0  0  0  0
   -0.3951   -5.9660    1.1284 H   0  0  0  0  0  0
   -1.0294   -4.4834    0.4015 H   0  0  0  0  0  0
    2.0500   -5.9589   -0.9860 H   0  0  0  0  0  0
    4.2927   -4.9139   -0.8134 H   0  0  0  0  0  0
    5.8157    0.0750   -1.4205 H   0  0  0  0  0  0
    4.6138   -0.0912   -0.1779 H   0  0  0  0  0  0
  1  2  1  0  0  0
  1 25  1  0  0  0
  1 26  1  0  0  0
  1 27  1  0  0  0
  2  3  1  0  0  0
  3  4  1  0  0  0
  3 28  1  0  0  0
  3 29  1  0  0  0
  4  5  1  0  0  0
  4 30  1  0  0  0
  4 31  1  0  0  0
  5  6  1  0  0  0
  5 32  1  0  0  0
  5 33  1  0  0  0
  6  7  1  0  0  0
  6 34  1  0  0  0
  7  8  2  0  0  0
  7  9  1  0  0  0
  9 24  1  0  0  0
  9 10  1  0  0  0
  9 35  1  0  0  0
 10 11  1  0  0  0
 10 36  1  0  0  0
 10 37  1  0  0  0
 11 12  1  0  0  0
 11 38  1  0  0  0
 11 39  1  0  0  0
 12 13  1  0  0  0
 12 40  1  0  0  0
 12 41  1  0  0  0
 13 14  1  0  0  0
 13 24  1  0  0  0
 14 15  2  0  0  0
 14 16  2  0  0  0
 14 17  1  0  0  0
 17 23  1  0  0  0
 17 18  2  0  0  0
 18 19  1  0  0  0
 18 42  1  0  0  0
 19 20  2  0  0  0
 19 43  1  0  0  0
 20 21  1  0  0  0
 20 22  1  0  0  0
 21 44  1  0  0  0
 21 45  1  0  0  0
 21 46  1  0  0  0
 22 23  2  0  0  0
 22 47  1  0  0  0
 23 48  1  0  0  0
 24 49  1  0  0  0
 24 50  1  0  0  0
M  END
$$$$
134
                    3D
 Schrodinger Suite 2021-2.
 42 43  0  0  1  0            999 V2000
   -0.6028   -0.7526    0.8861 C   0  0  0  0  0  0
    0.1525    0.2045   -0.0482 C   0  0  2  0  0  0
   -0.2279   -0.0950   -1.4318 N   0  0  2  0  0  0
   -0.4353    1.1534   -2.6051 S   0  0  0  0  0  0
   -1.9574    2.0157   -2.0328 C   0  0  0  0  0  0
    0.7064    2.0729   -2.4908 O   0  0  0  0  0  0
   -0.7357    0.5003   -3.8877 O   0  0  0  0  0  0
    1.6730    0.0951    0.1874 C   0  0  0  0  0  0
    2.2512   -0.8958   -0.2637 O   0  0  0  0  0  0
    2.3447    1.0682    0.8543 N   0  0  0  0  0  0
    3.8006    0.9777    1.0052 C   0  0  0  0  0  0
    1.7226    2.2332    1.4993 C   0  0  0  0  0  0
    1.4797    3.3618    0.5377 C   0  0  0  0  0  0
    2.4003    3.9639   -0.2838 C   0  0  0  0  0  0
    1.6747    5.1915   -1.2832 S   0  0  0  0  0  0
    0.1128    4.8362   -0.5418 C   0  0  0  0  0  0
   -1.1157    5.5213   -0.9469 C   0  0  0  0  0  0
   -1.1756    6.2658   -2.1480 C   0  0  0  0  0  0
   -2.3696    6.9067   -2.5317 C   0  0  0  0  0  0
   -3.5151    6.8109   -1.7200 C   0  0  0  0  0  0
   -3.4663    6.0713   -0.5240 C   0  0  0  0  0  0
   -2.2733    5.4292   -0.1400 C   0  0  0  0  0  0
    0.1924    3.8861    0.3955 N   0  0  0  0  0  0
   -0.3737   -0.5449    1.9320 H   0  0  0  0  0  0
   -1.6812   -0.6482    0.7632 H   0  0  0  0  0  0
   -0.3463   -1.7944    0.6892 H   0  0  0  0  0  0
   -0.2044    1.2075    0.1621 H   0  0  0  0  0  0
   -0.8090   -0.9216   -1.5693 H   0  0  0  0  0  0
   -2.1828    2.8374   -2.7127 H   0  0  0  0  0  0
   -2.7921    1.3155   -2.0232 H   0  0  0  0  0  0
   -1.8085    2.4145   -1.0307 H   0  0  0  0  0  0
    4.2818    0.7639    0.0495 H   0  0  0  0  0  0
    4.2402    1.9039    1.3764 H   0  0  0  0  0  0
    4.0604    0.1816    1.7038 H   0  0  0  0  0  0
    0.7997    1.9345    1.9987 H   0  0  0  0  0  0
    2.3543    2.5858    2.3155 H   0  0  0  0  0  0
    3.4547    3.7491   -0.3734 H   0  0  0  0  0  0
   -0.3149    6.3495   -2.7941 H   0  0  0  0  0  0
   -2.4064    7.4712   -3.4518 H   0  0  0  0  0  0
   -4.4301    7.3033   -2.0149 H   0  0  0  0  0  0
   -4.3448    5.9954    0.0998 H   0  0  0  0  0  0
   -2.2567    4.8652    0.7811 H   0  0  0  0  0  0
  1  2  1  0  0  0
  1 24  1  0  0  0
  1 25  1  0  0  0
  1 26  1  0  0  0
  2  3  1  0  0  0
  2  8  1  0  0  0
  2 27  1  0  0  0
  3  4  1  0  0  0
  3 28  1  0  0  0
  4  5  1  0  0  0
  4  6  2  0  0  0
  4  7  2  0  0  0
  5 29  1  0  0  0
  5 30  1  0  0  0
  5 31  1  0  0  0
  8  9  2  0  0  0
  8 10  1  0  0  0
 10 11  1  0  0  0
 10 12  1  0  0  0
 11 32  1  0  0  0
 11 33  1  0  0  0
 11 34  1  0  0  0
 12 13  1  0  0  0
 12 35  1  0  0  0
 12 36  1  0  0  0
 13 23  1  0  0  0
 13 14  2  0  0  0
 14 15  1  0  0  0
 14 37  1  0  0  0
 15 16  1  0  0  0
 16 17  1  0  0  0
 16 23  2  0  0  0
 17 22  1  0  0  0
 17 18  2  0  0  0
 18 19  1  0  0  0
 18 38  1  0  0  0
 19 20  2  0  0  0
 19 39  1  0  0  0
 20 21  1  0  0  0
 20 40  1  0  0  0
 21 22  2  0  0  0
 21 41  1  0  0  0
 22 42  1  0  0  0
M  END
$$$$
135
                    3D
 Schrodinger Suite 2021-2.
 46 47  0  0  1  0            999 V2000
   -2.6837    6.8561   -3.2824 C   0  0  0  0  0  0
   -2.2153    5.5638   -2.6457 C   0  0  0  0  0  0
   -2.8649    4.3507   -2.9493 C   0  0  0  0  0  0
   -2.4314    3.1488   -2.3570 C   0  0  0  0  0  0
   -1.3545    3.1468   -1.4460 C   0  0  0  0  0  0
   -0.9617    1.8937   -0.9030 N   0  0  0  0  0  0
   -0.3099    1.6453    0.2483 C   0  0  0  0  0  0
    0.0289    2.5030    1.0630 O   0  0  0  0  0  0
   -0.0039    0.1764    0.5385 C   0  0  0  0  0  0
    1.7728   -0.1939    0.5100 S   0  0  0  0  0  0
    2.1124   -0.0796   -1.2729 C   0  0  0  0  0  0
    3.5720   -0.3667   -1.6205 C   0  0  0  0  0  0
    4.2020    0.4283   -2.3167 O   0  0  0  0  0  0
    4.0869   -1.5076   -1.1282 N   0  0  0  0  0  0
    5.4621   -2.0123   -1.2324 C   0  0  1  0  0  0
    5.8287   -2.2872   -2.7055 C   0  0  0  0  0  0
    6.4625   -1.0321   -0.5636 C   0  0  0  0  0  0
    6.2914   -1.0888    0.9594 C   0  0  0  0  0  0
    5.8151   -2.8153    1.3354 S   0  0  0  0  0  0
    6.9769   -3.5470    1.8625 O   0  0  0  0  0  0
    4.5323   -2.8095    2.0548 O   0  0  0  0  0  0
    5.5338   -3.3137   -0.4081 C   0  0  0  0  0  0
   -0.6947    4.3654   -1.1544 C   0  0  0  0  0  0
   -1.1286    5.5667   -1.7482 C   0  0  0  0  0  0
   -3.0070    6.6854   -4.3097 H   0  0  0  0  0  0
   -3.5224    7.2690   -2.7216 H   0  0  0  0  0  0
   -1.8839    7.5972   -3.2996 H   0  0  0  0  0  0
   -3.6965    4.3380   -3.6386 H   0  0  0  0  0  0
   -2.9366    2.2256   -2.6014 H   0  0  0  0  0  0
   -1.2625    1.0831   -1.4243 H   0  0  0  0  0  0
   -0.3882   -0.0648    1.5299 H   0  0  0  0  0  0
   -0.5194   -0.4775   -0.1663 H   0  0  0  0  0  0
    1.4753   -0.7864   -1.8049 H   0  0  0  0  0  0
    1.8487    0.9185   -1.6242 H   0  0  0  0  0  0
    3.4607   -2.0729   -0.5730 H   0  0  0  0  0  0
    6.8167   -2.7413   -2.7886 H   0  0  0  0  0  0
    5.1151   -2.9691   -3.1694 H   0  0  0  0  0  0
    5.8484   -1.3733   -3.2992 H   0  0  0  0  0  0
    7.4770   -1.3546   -0.8012 H   0  0  0  0  0  0
    6.3786   -0.0109   -0.9352 H   0  0  0  0  0  0
    7.1971   -0.8177    1.5018 H   0  0  0  0  0  0
    5.4806   -0.4354    1.2828 H   0  0  0  0  0  0
    4.6401   -3.9344   -0.4836 H   0  0  0  0  0  0
    6.3887   -3.9195   -0.7103 H   0  0  0  0  0  0
    0.1551    4.4013   -0.4904 H   0  0  0  0  0  0
   -0.6189    6.4903   -1.5155 H   0  0  0  0  0  0
  1  2  1  0  0  0
  1 25  1  0  0  0
  1 26  1  0  0  0
  1 27  1  0  0  0
  2 24  1  0  0  0
  2  3  2  0  0  0
  3  4  1  0  0  0
  3 28  1  0  0  0
  4  5  2  0  0  0
  4 29  1  0  0  0
  5  6  1  0  0  0
  5 23  1  0  0  0
  6  7  1  0  0  0
  6 30  1  0  0  0
  7  8  2  0  0  0
  7  9  1  0  0  0
  9 10  1  0  0  0
  9 31  1  0  0  0
  9 32  1  0  0  0
 10 11  1  0  0  0
 11 12  1  0  0  0
 11 33  1  0  0  0
 11 34  1  0  0  0
 12 13  2  0  0  0
 12 14  1  0  0  0
 14 15  1  0  0  0
 14 35  1  0  0  0
 15 22  1  0  0  0
 15 16  1  0  0  0
 15 17  1  0  0  0
 16 36  1  0  0  0
 16 37  1  0  0  0
 16 38  1  0  0  0
 17 18  1  0  0  0
 17 39  1  0  0  0
 17 40  1  0  0  0
 18 19  1  0  0  0
 18 41  1  0  0  0
 18 42  1  0  0  0
 19 20  2  0  0  0
 19 21  2  0  0  0
 19 22  1  0  0  0
 22 43  1  0  0  0
 22 44  1  0  0  0
 23 24  2  0  0  0
 23 45  1  0  0  0
 24 46  1  0  0  0
M  END
$$$$
136
                    3D
 Schrodinger Suite 2021-2.
 39 39  0  0  1  0            999 V2000
   -2.8943   -1.4522    3.2088 C   0  0  0  0  0  0
   -2.3197   -1.2310    1.9333 O   0  0  0  0  0  0
   -2.1250   -2.4337    1.2076 C   0  0  0  0  0  0
   -1.5001   -2.1205   -0.1593 C   0  0  0  0  0  0
   -0.1207   -1.6645   -0.0264 N   0  0  0  0  0  0
    0.2677   -0.3828    0.0529 C   0  0  0  0  0  0
   -0.5173    0.5662    0.0311 O   0  0  0  0  0  0
    1.7744   -0.1417    0.2024 C   0  0  0  0  0  0
    2.2119    1.0851   -0.4581 N   0  0  0  0  0  0
    2.4303    1.2132   -1.7776 C   0  0  0  0  0  0
    2.3157    0.2846   -2.5779 O   0  0  0  0  0  0
    2.8368    2.5893   -2.2253 C   0  0  0  0  0  0
    2.0969    3.7033   -1.7668 C   0  0  0  0  0  0
    2.4205    5.0070   -2.1867 C   0  0  0  0  0  0
    1.6134    6.1876   -1.6870 C   0  0  0  0  0  0
    3.4884    5.2056   -3.0806 C   0  0  0  0  0  0
    4.2379    4.1079   -3.5494 C   0  0  0  0  0  0
    5.3876    4.3528   -4.5096 C   0  0  0  0  0  0
    3.9186    2.7958   -3.1239 C   0  0  0  0  0  0
    4.9884    1.3370   -3.7481 Br  0  0  0  0  0  0
   -3.0129   -0.5006    3.7267 H   0  0  0  0  0  0
   -3.8786   -1.9144    3.1233 H   0  0  0  0  0  0
   -2.2584   -2.0923    3.8219 H   0  0  0  0  0  0
   -1.4873   -3.1202    1.7672 H   0  0  0  0  0  0
   -3.0864   -2.9288    1.0625 H   0  0  0  0  0  0
   -1.4876   -3.0265   -0.7651 H   0  0  0  0  0  0
   -2.1081   -1.3964   -0.7045 H   0  0  0  0  0  0
    0.5934   -2.3777    0.0040 H   0  0  0  0  0  0
    2.0079   -0.0623    1.2643 H   0  0  0  0  0  0
    2.3381   -0.9947   -0.1802 H   0  0  0  0  0  0
    2.3291    1.9012    0.1246 H   0  0  0  0  0  0
    1.2631    3.5604   -1.0936 H   0  0  0  0  0  0
    2.1972    7.1076   -1.7293 H   0  0  0  0  0  0
    0.7211    6.3184   -2.2996 H   0  0  0  0  0  0
    1.3017    6.0331   -0.6536 H   0  0  0  0  0  0
    3.7333    6.2058   -3.4076 H   0  0  0  0  0  0
    5.2389    3.7934   -5.4336 H   0  0  0  0  0  0
    5.4734    5.4084   -4.7686 H   0  0  0  0  0  0
    6.3308    4.0388   -4.0618 H   0  0  0  0  0  0
  1  2  1  0  0  0
  1 21  1  0  0  0
  1 22  1  0  0  0
  1 23  1  0  0  0
  2  3  1  0  0  0
  3  4  1  0  0  0
  3 24  1  0  0  0
  3 25  1  0  0  0
  4  5  1  0  0  0
  4 26  1  0  0  0
  4 27  1  0  0  0
  5  6  1  0  0  0
  5 28  1  0  0  0
  6  7  2  0  0  0
  6  8  1  0  0  0
  8  9  1  0  0  0
  8 29  1  0  0  0
  8 30  1  0  0  0
  9 10  1  0  0  0
  9 31  1  0  0  0
 10 11  2  0  0  0
 10 12  1  0  0  0
 12 19  1  0  0  0
 12 13  2  0  0  0
 13 14  1  0  0  0
 13 32  1  0  0  0
 14 15  1  0  0  0
 14 16  2  0  0  0
 15 33  1  0  0  0
 15 34  1  0  0  0
 15 35  1  0  0  0
 16 17  1  0  0  0
 16 36  1  0  0  0
 17 18  1  0  0  0
 17 19  2  0  0  0
 18 37  1  0  0  0
 18 38  1  0  0  0
 18 39  1  0  0  0
 19 20  1  0  0  0
M  END
$$$$
137
                    3D
 Schrodinger Suite 2021-2.
 46 48  0  0  1  0            999 V2000
   -1.6196   -4.0824   -2.3982 O   0  0  0  0  0  0
   -1.8285   -2.8555   -2.2784 C   0  0  0  0  0  0
   -1.5465   -1.9882   -3.1349 O   0  5  0  0  0  0
   -2.5059   -2.3938   -0.9800 C   0  0  0  0  0  0
   -2.0385   -1.0074   -0.4832 C   0  0  0  0  0  0
   -0.5854   -0.9036   -0.3864 N   0  0  0  0  0  0
    0.0742    0.1083    0.1958 C   0  0  0  0  0  0
   -0.4966    1.0577    0.7350 O   0  0  0  0  0  0
    1.5506    0.0150    0.1515 C   0  0  0  0  0  0
    2.3536   -0.9698   -0.4478 C   0  0  0  0  0  0
    3.6706   -0.6422   -0.2403 C   0  0  0  0  0  0
    5.1176   -1.4320   -0.7228 S   0  0  0  0  0  0
    6.0077   -0.1173    0.0799 C   0  0  0  0  0  0
    7.5005   -0.1012    0.0766 C   0  0  0  0  0  0
    8.0898    0.3519   -1.2699 C   0  0  0  0  0  0
    9.6305    0.3187   -1.3283 C   0  0  0  0  0  0
   10.2847    1.3892   -0.4282 C   0  0  0  0  0  0
   11.8181    1.3704   -0.5519 C   0  0  0  0  0  0
   12.2343    1.5346   -1.9609 N   0  3  0  0  0  0
   11.6656    0.4987   -2.8488 C   0  0  0  0  0  0
   10.1295    0.5045   -2.7754 C   0  0  0  0  0  0
    5.1691    0.8270    0.6581 C   0  0  0  0  0  0
    3.8086    0.4783    0.4441 C   0  0  0  0  0  0
    2.4292    1.3462    0.9677 S   0  0  0  0  0  0
   11.9252    2.4402   -2.2842 H   0  0  0  0  0  0
   13.2424    1.4961   -2.0130 H   0  0  0  0  0  0
   -3.5851   -2.3867   -1.1350 H   0  0  0  0  0  0
   -2.3103   -3.1357   -0.2043 H   0  0  0  0  0  0
   -2.4016   -0.2294   -1.1565 H   0  0  0  0  0  0
   -2.4842   -0.8079    0.4923 H   0  0  0  0  0  0
   -0.0474   -1.6423   -0.8164 H   0  0  0  0  0  0
    1.9997   -1.8385   -0.9839 H   0  0  0  0  0  0
    7.8484    0.5513    0.8771 H   0  0  0  0  0  0
    7.8683   -1.0987    0.3190 H   0  0  0  0  0  0
    7.6969   -0.3012   -2.0505 H   0  0  0  0  0  0
    7.7322    1.3544   -1.5092 H   0  0  0  0  0  0
    9.9602   -0.6643   -0.9880 H   0  0  0  0  0  0
    9.9098    2.3777   -0.6976 H   0  0  0  0  0  0
   10.0132    1.2310    0.6152 H   0  0  0  0  0  0
   12.2554    2.1719    0.0436 H   0  0  0  0  0  0
   12.2186    0.4319   -0.1660 H   0  0  0  0  0  0
   11.9966    0.6848   -3.8707 H   0  0  0  0  0  0
   12.0564   -0.4778   -2.5596 H   0  0  0  0  0  0
    9.7332   -0.2869   -3.4127 H   0  0  0  0  0  0
    9.7495    1.4439   -3.1797 H   0  0  0  0  0  0
    5.4806    1.7106    1.1953 H   0  0  0  0  0  0
  1  2  2  0  0  0
  2  3  1  0  0  0
  2  4  1  0  0  0
  4  5  1  0  0  0
  4 27  1  0  0  0
  4 28  1  0  0  0
  5  6  1  0  0  0
  5 29  1  0  0  0
  5 30  1  0  0  0
  6  7  1  0  0  0
  6 31  1  0  0  0
  7  8  2  0  0  0
  7  9  1  0  0  0
  9 24  1  0  0  0
  9 10  2  0  0  0
 10 11  1  0  0  0
 10 32  1  0  0  0
 11 23  2  0  0  0
 11 12  1  0  0  0
 12 13  1  0  0  0
 13 14  1  0  0  0
 13 22  2  0  0  0
 14 15  1  0  0  0
 14 33  1  0  0  0
 14 34  1  0  0  0
 15 16  1  0  0  0
 15 35  1  0  0  0
 15 36  1  0  0  0
 16 21  1  0  0  0
 16 17  1  0  0  0
 16 37  1  0  0  0
 17 18  1  0  0  0
 17 38  1  0  0  0
 17 39  1  0  0  0
 18 19  1  0  0  0
 18 40  1  0  0  0
 18 41  1  0  0  0
 19 25  1  0  0  0
 19 26  1  0  0  0
 19 20  1  0  0  0
 20 21  1  0  0  0
 20 42  1  0  0  0
 20 43  1  0  0  0
 21 44  1  0  0  0
 21 45  1  0  0  0
 22 23  1  0  0  0
 22 46  1  0  0  0
 23 24  1  0  0  0
M  CHG  2   3  -1  19   1
M  END
$$$$
138
                    3D
 Schrodinger Suite 2021-2.
 54 56  0  0  1  0            999 V2000
   -1.9651    1.7705   -0.2642 C   0  0  0  0  0  0
   -0.5542    1.5134    0.1323 N   0  3  0  0  0  0
   -0.2385    2.2612    1.3797 C   0  0  0  0  0  0
   -0.1091    0.0676    0.1078 C   0  0  0  0  0  0
    1.4529    0.0475    0.0879 C   0  0  0  0  0  0
    2.0430   -1.3075   -0.0136 N   0  3  0  0  0  0
    3.5182   -1.3299    0.0143 C   0  0  0  0  0  0
    4.0472   -2.7600   -0.1708 C   0  0  0  0  0  0
    5.5658   -2.8343   -0.1564 C   0  0  0  0  0  0
    6.2640   -3.0282   -1.2948 C   0  0  0  0  0  0
    7.7727   -3.1458   -1.4081 C   0  0  0  0  0  0
    8.5589   -3.6867    0.1311 S   0  0  0  0  0  0
    7.7294   -2.4994    1.2100 C   0  0  0  0  0  0
    6.2106   -2.7341    1.2253 C   0  0  0  0  0  0
   -0.6332   -0.6890    1.3542 C   0  0  0  0  0  0
   -0.4687   -2.0948    1.2330 O   0  0  0  0  0  0
   -1.4750   -2.7767    0.5892 C   0  0  0  0  0  0
   -1.7626   -4.0725    1.0651 C   0  0  0  0  0  0
   -2.8248   -4.8191    0.5236 C   0  0  0  0  0  0
   -3.6105   -4.2728   -0.5058 C   0  0  0  0  0  0
   -3.3148   -2.9924   -1.0080 C   0  0  0  0  0  0
   -2.2363   -2.2452   -0.4913 C   0  0  0  0  0  0
   -1.9828   -1.0335   -1.0926 O   0  0  0  0  0  0
   -0.6208   -0.6327   -1.1837 C   0  0  0  0  0  0
   -0.0090    1.9659   -0.5880 H   0  0  0  0  0  0
    1.7033   -1.8679    0.7556 H   0  0  0  0  0  0
    1.7364   -1.7303   -0.8782 H   0  0  0  0  0  0
   -2.6683    1.2321    0.3711 H   0  0  0  0  0  0
   -2.2000    2.8326   -0.1857 H   0  0  0  0  0  0
   -2.1560    1.5020   -1.3023 H   0  0  0  0  0  0
   -0.8231    1.8975    2.2254 H   0  0  0  0  0  0
    0.8147    2.2212    1.6479 H   0  0  0  0  0  0
   -0.4764    3.3181    1.2543 H   0  0  0  0  0  0
    1.8190    0.6458   -0.7480 H   0  0  0  0  0  0
    1.8623    0.4911    0.9940 H   0  0  0  0  0  0
    3.9034   -0.6877   -0.7789 H   0  0  0  0  0  0
    3.8576   -0.9118    0.9622 H   0  0  0  0  0  0
    3.6578   -3.4154    0.6095 H   0  0  0  0  0  0
    3.6772   -3.1598   -1.1161 H   0  0  0  0  0  0
    5.7321   -3.0815   -2.2337 H   0  0  0  0  0  0
    8.0181   -3.8661   -2.1886 H   0  0  0  0  0  0
    8.1832   -2.1833   -1.7138 H   0  0  0  0  0  0
    8.1351   -2.5883    2.2179 H   0  0  0  0  0  0
    7.9557   -1.4909    0.8620 H   0  0  0  0  0  0
    5.7423   -1.9291    1.7909 H   0  0  0  0  0  0
    5.9893   -3.6563    1.7638 H   0  0  0  0  0  0
   -0.0881   -0.3759    2.2449 H   0  0  0  0  0  0
   -1.6805   -0.4607    1.5578 H   0  0  0  0  0  0
   -1.1799   -4.4888    1.8739 H   0  0  0  0  0  0
   -3.0443   -5.8048    0.9071 H   0  0  0  0  0  0
   -4.4327   -4.8396   -0.9177 H   0  0  0  0  0  0
   -3.9088   -2.5889   -1.8152 H   0  0  0  0  0  0
   -0.5026    0.0274   -2.0438 H   0  0  0  0  0  0
   -0.0345   -1.5164   -1.4381 H   0  0  0  0  0  0
  1  2  1  0  0  0
  1 28  1  0  0  0
  1 29  1  0  0  0
  1 30  1  0  0  0
  2 25  1  0  0  0
  2  3  1  0  0  0
  2  4  1  0  0  0
  3 31  1  0  0  0
  3 32  1  0  0  0
  3 33  1  0  0  0
  4 24  1  0  0  0
  4  5  1  0  0  0
  4 15  1  0  0  0
  5  6  1  0  0  0
  5 34  1  0  0  0
  5 35  1  0  0  0
  6 26  1  0  0  0
  6 27  1  0  0  0
  6  7  1  0  0  0
  7  8  1  0  0  0
  7 36  1  0  0  0
  7 37  1  0  0  0
  8  9  1  0  0  0
  8 38  1  0  0  0
  8 39  1  0  0  0
  9 14  1  0  0  0
  9 10  2  0  0  0
 10 11  1  0  0  0
 10 40  1  0  0  0
 11 12  1  0  0  0
 11 41  1  0  0  0
 11 42  1  0  0  0
 12 13  1  0  0  0
 13 14  1  0  0  0
 13 43  1  0  0  0
 13 44  1  0  0  0
 14 45  1  0  0  0
 14 46  1  0  0  0
 15 16  1  0  0  0
 15 47  1  0  0  0
 15 48  1  0  0  0
 16 17  1  0  0  0
 17 22  2  0  0  0
 17 18  1  0  0  0
 18 19  2  0  0  0
 18 49  1  0  0  0
 19 20  1  0  0  0
 19 50  1  0  0  0
 20 21  2  0  0  0
 20 51  1  0  0  0
 21 22  1  0  0  0
 21 52  1  0  0  0
 22 23  1  0  0  0
 23 24  1  0  0  0
 24 53  1  0  0  0
 24 54  1  0  0  0
M  CHG  2   2   1   6   1
M  END
$$$$
139
                    3D
 Schrodinger Suite 2021-2.
 45 47  0  0  1  0            999 V2000
   -5.8246    1.9140    0.4652 O   0  0  0  0  0  0
   -4.8025    1.4383   -0.0767 C   0  0  0  0  0  0
   -4.8066    0.4857   -0.8875 O   0  5  0  0  0  0
   -3.4507    2.0965    0.2657 C   0  0  1  0  0  0
   -3.3976    2.4961    1.7581 C   0  0  0  0  0  0
   -2.0932    3.1030    2.0945 N   0  3  0  0  0  0
   -0.9495    2.2135    1.8038 C   0  0  0  0  0  0
   -0.9159    1.8306    0.3097 C   0  0  1  0  0  0
    0.2632    0.8970   -0.0243 C   0  0  0  0  0  0
    1.5787    1.4999    0.1859 N   0  0  2  0  0  0
    2.0236    2.2613   -0.8343 N   0  0  0  0  0  0
    3.2931    2.4427   -0.8900 C   0  0  0  0  0  0
    3.9167    3.2268   -1.9229 C   0  0  0  0  0  0
    3.4022    3.8935   -3.0008 C   0  0  0  0  0  0
    4.5096    4.4880   -3.6666 C   0  0  0  0  0  0
    5.6222    4.1579   -2.9420 C   0  0  0  0  0  0
    7.0416    4.4460   -3.1351 C   0  0  0  0  0  0
    7.5587    4.4401   -4.4502 C   0  0  0  0  0  0
    8.9203    4.6983   -4.6953 C   0  0  0  0  0  0
    9.7866    4.9701   -3.6223 C   0  0  0  0  0  0
    9.2858    4.9880   -2.3081 C   0  0  0  0  0  0
    7.9223    4.7315   -2.0584 C   0  0  0  0  0  0
    7.3692    4.8114   -0.4210 Cl  0  0  0  0  0  0
    5.2698    3.3727   -1.8836 O   0  0  0  0  0  0
   -2.2545    1.1827   -0.0923 C   0  0  0  0  0  0
   -3.3821    3.0029   -0.3374 H   0  0  0  0  0  0
   -1.9869    3.9501    1.5550 H   0  0  0  0  0  0
   -2.0864    3.3376    3.0768 H   0  0  0  0  0  0
   -0.8010    2.7442   -0.2764 H   0  0  0  0  0  0
   -4.1762    3.2210    1.9983 H   0  0  0  0  0  0
   -3.5610    1.6268    2.3974 H   0  0  0  0  0  0
   -0.0335    2.7313    2.0888 H   0  0  0  0  0  0
   -1.0195    1.3218    2.4283 H   0  0  0  0  0  0
    0.2046   -0.0067    0.5831 H   0  0  0  0  0  0
    0.1940    0.5698   -1.0630 H   0  0  0  0  0  0
    2.2814    0.9212    0.6336 H   0  0  0  0  0  0
    3.9581    2.0012   -0.1450 H   0  0  0  0  0  0
    2.3601    3.9436   -3.2798 H   0  0  0  0  0  0
    4.4947    5.0875   -4.5648 H   0  0  0  0  0  0
    6.9076    4.2278   -5.2858 H   0  0  0  0  0  0
    9.2994    4.6863   -5.7067 H   0  0  0  0  0  0
   10.8320    5.1689   -3.8066 H   0  0  0  0  0  0
    9.9517    5.2064   -1.4861 H   0  0  0  0  0  0
   -2.3585    0.2193    0.4102 H   0  0  0  0  0  0
   -2.2457    0.9758   -1.1638 H   0  0  0  0  0  0
  1  2  2  0  0  0
  2  3  1  0  0  0
  2  4  1  0  0  0
  4 26  1  0  0  0
  4 25  1  0  0  0
  4  5  1  0  0  0
  5  6  1  0  0  0
  5 30  1  0  0  0
  5 31  1  0  0  0
  6 27  1  0  0  0
  6 28  1  0  0  0
  6  7  1  0  0  0
  7  8  1  0  0  0
  7 32  1  0  0  0
  7 33  1  0  0  0
  8 29  1  0  0  0
  8  9  1  0  0  0
  8 25  1  0  0  0
  9 10  1  0  0  0
  9 34  1  0  0  0
  9 35  1  0  0  0
 10 11  1  0  0  0
 10 36  1  0  0  0
 11 12  2  0  0  0
 12 13  1  0  0  0
 12 37  1  0  0  0
 13 24  1  0  0  0
 13 14  2  0  0  0
 14 15  1  0  0  0
 14 38  1  0  0  0
 15 16  2  0  0  0
 15 39  1  0  0  0
 16 17  1  0  0  0
 16 24  1  0  0  0
 17 22  1  0  0  0
 17 18  2  0  0  0
 18 19  1  0  0  0
 18 40  1  0  0  0
 19 20  2  0  0  0
 19 41  1  0  0  0
 20 21  1  0  0  0
 20 42  1  0  0  0
 21 22  2  0  0  0
 21 43  1  0  0  0
 22 23  1  0  0  0
 25 44  1  0  0  0
 25 45  1  0  0  0
M  CHG  2   3  -1   6   1
M  END
$$$$
140
                    3D
 Schrodinger Suite 2021-2.
 52 53  0  0  1  0            999 V2000
    0.4649   -4.3812    1.9038 C   0  0  0  0  0  0
   -0.4244   -4.7481    0.7284 C   0  0  0  0  0  0
   -0.9251   -6.0627    0.6147 C   0  0  0  0  0  0
   -1.7474   -6.4200   -0.4718 C   0  0  0  0  0  0
   -2.0711   -5.4672   -1.4569 C   0  0  0  0  0  0
   -1.5770   -4.1532   -1.3542 C   0  0  0  0  0  0
   -0.7696   -3.7920   -0.2547 C   0  0  0  0  0  0
   -0.2248   -2.4601   -0.1645 N   0  3  0  0  0  0
   -0.9702   -1.3269   -0.1545 C   0  0  0  0  0  0
   -2.7637   -1.3931   -0.1988 S   0  0  0  0  0  0
   -0.2958   -0.1413   -0.0674 N   0  0  0  0  0  0
    1.1850   -0.1103    0.0722 C   0  0  0  0  0  0
    1.9066   -0.2982   -1.2782 C   0  0  0  0  0  0
    3.3810   -0.1740   -1.1553 N   0  3  0  0  0  0
    4.0262    0.1039   -2.4579 C   0  0  0  0  0  0
    4.0100   -1.3290   -0.4735 C   0  0  0  0  0  0
   -1.0301    1.1527    0.0333 C   0  0  2  0  0  0
   -0.3091    2.3565   -0.6031 C   0  0  0  0  0  0
   -1.5439    1.4658    1.4330 C   0  0  0  0  0  0
   -0.7985    1.1501    2.5920 C   0  0  0  0  0  0
   -1.3420    1.4750    3.8502 C   0  0  0  0  0  0
   -2.6015    2.1010    3.9048 C   0  0  0  0  0  0
   -3.2642    2.3791    2.6937 C   0  0  0  0  0  0
   -2.7513    2.0722    1.4828 N   0  0  0  0  0  0
    0.7050   -2.3467    0.2118 H   0  0  0  0  0  0
    3.5588    0.6382   -0.5811 H   0  0  0  0  0  0
    0.5833   -5.2212    2.5891 H   0  0  0  0  0  0
    1.4554   -4.0884    1.5547 H   0  0  0  0  0  0
    0.0345   -3.5503    2.4637 H   0  0  0  0  0  0
   -0.6794   -6.8055    1.3598 H   0  0  0  0  0  0
   -2.1255   -7.4287   -0.5524 H   0  0  0  0  0  0
   -2.6942   -5.7465   -2.2937 H   0  0  0  0  0  0
   -1.8154   -3.4326   -2.1226 H   0  0  0  0  0  0
   -2.9783   -0.0759   -0.1308 H   0  0  0  0  0  0
    1.4989    0.8301    0.5230 H   0  0  0  0  0  0
    1.4878   -0.8744    0.7872 H   0  0  0  0  0  0
    1.6609   -1.2625   -1.7241 H   0  0  0  0  0  0
    1.5473    0.4547   -1.9788 H   0  0  0  0  0  0
    3.8665   -0.7181   -3.1570 H   0  0  0  0  0  0
    3.6261    1.0155   -2.9034 H   0  0  0  0  0  0
    5.1007    0.2442   -2.3357 H   0  0  0  0  0  0
    3.8320   -2.2536   -1.0243 H   0  0  0  0  0  0
    5.0883   -1.1860   -0.3933 H   0  0  0  0  0  0
    3.6259   -1.4544    0.5383 H   0  0  0  0  0  0
   -1.9088    1.0408   -0.5994 H   0  0  0  0  0  0
   -1.0064    3.1831   -0.7437 H   0  0  0  0  0  0
    0.5011    2.7291    0.0238 H   0  0  0  0  0  0
    0.0943    2.1168   -1.5856 H   0  0  0  0  0  0
    0.1677    0.6735    2.5326 H   0  0  0  0  0  0
   -0.8017    1.2487    4.7578 H   0  0  0  0  0  0
   -3.0488    2.3635    4.8522 H   0  0  0  0  0  0
   -4.2313    2.8599    2.6968 H   0  0  0  0  0  0
  1  2  1  0  0  0
  1 27  1  0  0  0
  1 28  1  0  0  0
  1 29  1  0  0  0
  2  7  1  0  0  0
  2  3  2  0  0  0
  3  4  1  0  0  0
  3 30  1  0  0  0
  4  5  2  0  0  0
  4 31  1  0  0  0
  5  6  1  0  0  0
  5 32  1  0  0  0
  6  7  2  0  0  0
  6 33  1  0  0  0
  7  8  1  0  0  0
  8 25  1  0  0  0
  8  9  2  3  0  0
  9 10  1  0  0  0
  9 11  1  0  0  0
 10 34  1  0  0  0
 11 12  1  0  0  0
 11 17  1  0  0  0
 12 13  1  0  0  0
 12 35  1  0  0  0
 12 36  1  0  0  0
 13 14  1  0  0  0
 13 37  1  0  0  0
 13 38  1  0  0  0
 14 26  1  0  0  0
 14 15  1  0  0  0
 14 16  1  0  0  0
 15 39  1  0  0  0
 15 40  1  0  0  0
 15 41  1  0  0  0
 16 42  1  0  0  0
 16 43  1  0  0  0
 16 44  1  0  0  0
 17 18  1  0  0  0
 17 19  1  0  0  0
 17 45  1  0  0  0
 18 46  1  0  0  0
 18 47  1  0  0  0
 18 48  1  0  0  0
 19 24  1  0  0  0
 19 20  2  0  0  0
 20 21  1  0  0  0
 20 49  1  0  0  0
 21 22  2  0  0  0
 21 50  1  0  0  0
 22 23  1  0  0  0
 22 51  1  0  0  0
 23 24  2  0  0  0
 23 52  1  0  0  0
M  CHG  2   8   1  14   1
M  END
$$$$
141
                    3D
 Schrodinger Suite 2021-2.
 60 62  0  0  1  0            999 V2000
   -2.5884    4.1974    0.9320 C   0  0  0  0  0  0
   -2.3788    2.7336    0.9691 N   0  3  0  0  0  0
   -2.9509    2.1286    2.1933 C   0  0  0  0  0  0
   -2.8258    2.0701   -0.2826 C   0  0  0  0  0  0
   -2.1913    0.6811   -0.4903 C   0  0  0  0  0  0
   -0.7481    0.7941   -0.5919 N   0  0  0  0  0  0
   -0.0323    0.1930    0.2686 C   0  0  0  0  0  0
    1.4594    0.2180    0.3008 C   0  0  0  0  0  0
    2.1803   -1.0101    0.2390 C   0  0  0  0  0  0
    1.4990   -2.2579    0.1592 C   0  0  0  0  0  0
    2.1951   -3.4745    0.0872 C   0  0  0  0  0  0
    3.5944   -3.4734    0.0871 C   0  0  0  0  0  0
    4.2886   -2.2557    0.1591 C   0  0  0  0  0  0
    3.6053   -1.0089    0.2389 C   0  0  0  0  0  0
    4.3242    0.2202    0.3007 C   0  0  0  0  0  0
    5.8160    0.1976    0.2684 C   0  0  0  0  0  0
    6.5309    0.8000   -0.5918 N   0  0  0  0  0  0
    7.9743    0.6893   -0.4903 C   0  0  0  0  0  0
    8.6065    2.0793   -0.2826 C   0  0  0  0  0  0
    8.1584    2.7422    0.9691 N   0  3  0  0  0  0
    8.7316    2.1381    2.1933 C   0  0  0  0  0  0
    8.3655    4.2062    0.9320 C   0  0  0  0  0  0
    3.6039    1.4481    0.4034 C   0  0  0  0  0  0
    4.2826    2.6927    0.5335 C   0  0  0  0  0  0
    3.5883    3.9066    0.6478 C   0  0  0  0  0  0
    2.1895    3.9055    0.6478 C   0  0  0  0  0  0
    1.4971    2.6905    0.5336 C   0  0  0  0  0  0
    2.1777    1.4469    0.4034 C   0  0  0  0  0  0
   -1.3790    2.5975    1.0167 H   0  0  0  0  0  0
    7.1589    2.6043    1.0168 H   0  0  0  0  0  0
   -3.6489    4.4386    0.8484 H   0  0  0  0  0  0
   -2.2003    4.6662    1.8368 H   0  0  0  0  0  0
   -2.0666    4.6410    0.0832 H   0  0  0  0  0  0
   -4.0385    2.2102    2.1989 H   0  0  0  0  0  0
   -2.6851    1.0756    2.2786 H   0  0  0  0  0  0
   -2.5680    2.6301    3.0828 H   0  0  0  0  0  0
   -3.9140    1.9946   -0.2889 H   0  0  0  0  0  0
   -2.5596    2.6959   -1.1361 H   0  0  0  0  0  0
   -2.5193   -0.0107    0.2886 H   0  0  0  0  0  0
   -2.5720    0.2609   -1.4219 H   0  0  0  0  0  0
   -0.4993   -0.4103    1.0525 H   0  0  0  0  0  0
    0.4221   -2.3253    0.1476 H   0  0  0  0  0  0
    1.6534   -4.4073    0.0283 H   0  0  0  0  0  0
    4.1374   -4.4053    0.0282 H   0  0  0  0  0  0
    5.3655   -2.3215    0.1474 H   0  0  0  0  0  0
    6.2841   -0.4053    1.0520 H   0  0  0  0  0  0
    8.3034   -0.0018    0.2888 H   0  0  0  0  0  0
    8.3556    0.2697   -1.4218 H   0  0  0  0  0  0
    9.6949    2.0056   -0.2888 H   0  0  0  0  0  0
    8.3393    2.7047   -1.1360 H   0  0  0  0  0  0
    9.8191    2.2213    2.1988 H   0  0  0  0  0  0
    8.3480    2.6391    3.0828 H   0  0  0  0  0  0
    8.4673    1.0847    2.2787 H   0  0  0  0  0  0
    9.4257    4.4492    0.8483 H   0  0  0  0  0  0
    7.8430    4.6490    0.0833 H   0  0  0  0  0  0
    7.9768    4.6744    1.8369 H   0  0  0  0  0  0
    5.3574    2.7599    0.5613 H   0  0  0  0  0  0
    4.1304    4.8360    0.7434 H   0  0  0  0  0  0
    1.6460    4.8340    0.7435 H   0  0  0  0  0  0
    0.4224    2.7560    0.5614 H   0  0  0  0  0  0
  1  2  1  0  0  0
  1 31  1  0  0  0
  1 32  1  0  0  0
  1 33  1  0  0  0
  2 29  1  0  0  0
  2  3  1  0  0  0
  2  4  1  0  0  0
  3 34  1  0  0  0
  3 35  1  0  0  0
  3 36  1  0  0  0
  4  5  1  0  0  0
  4 37  1  0  0  0
  4 38  1  0  0  0
  5  6  1  0  0  0
  5 39  1  0  0  0
  5 40  1  0  0  0
  6  7  2  0  0  0
  7  8  1  0  0  0
  7 41  1  0  0  0
  8 28  1  0  0  0
  8  9  2  0  0  0
  9 14  1  0  0  0
  9 10  1  0  0  0
 10 11  2  0  0  0
 10 42  1  0  0  0
 11 12  1  0  0  0
 11 43  1  0  0  0
 12 13  2  0  0  0
 12 44  1  0  0  0
 13 14  1  0  0  0
 13 45  1  0  0  0
 14 15  2  0  0  0
 15 16  1  0  0  0
 15 23  1  0  0  0
 16 17  2  0  0  0
 16 46  1  0  0  0
 17 18  1  0  0  0
 18 19  1  0  0  0
 18 47  1  0  0  0
 18 48  1  0  0  0
 19 20  1  0  0  0
 19 49  1  0  0  0
 19 50  1  0  0  0
 20 30  1  0  0  0
 20 21  1  0  0  0
 20 22  1  0  0  0
 21 51  1  0  0  0
 21 52  1  0  0  0
 21 53  1  0  0  0
 22 54  1  0  0  0
 22 55  1  0  0  0
 22 56  1  0  0  0
 23 28  2  0  0  0
 23 24  1  0  0  0
 24 25  2  0  0  0
 24 57  1  0  0  0
 25 26  1  0  0  0
 25 58  1  0  0  0
 26 27  2  0  0  0
 26 59  1  0  0  0
 27 28  1  0  0  0
 27 60  1  0  0  0
M  CHG  2   2   1  20   1
M  END
$$$$
142
                    3D
 Schrodinger Suite 2021-2.
 42 43  0  0  1  0            999 V2000
    1.5202    3.6987   -1.8145 C   0  0  0  0  0  0
    0.3313    3.3682   -1.2886 C   0  0  0  0  0  0
    0.1477    2.5743   -0.0069 C   0  0  0  0  0  0
   -0.7586    1.4171   -0.1991 N   0  0  0  0  0  0
   -0.2364    0.1423   -0.6225 C   0  0  0  0  0  0
    1.5614    0.1517   -0.9925 S   0  0  0  0  0  0
    1.8515   -1.5574   -1.5358 C   0  0  0  0  0  0
    3.3082   -1.8091   -1.9209 C   0  0  0  0  0  0
    3.8753   -1.0595   -2.7160 O   0  0  0  0  0  0
    3.9046   -2.8683   -1.3525 N   0  0  0  0  0  0
    5.2878   -3.2716   -1.5772 C   0  0  0  0  0  0
    5.4535   -4.0130   -2.9127 C   0  0  0  0  0  0
    6.7745   -4.4951   -3.0289 O   0  0  0  0  0  0
   -0.9669   -0.9318   -0.7522 N   0  0  0  0  0  0
   -2.3003   -0.7565   -0.4770 C   0  0  0  0  0  0
   -3.4165   -2.0844   -0.5827 S   0  0  0  0  0  0
   -4.7540   -1.0608   -0.1211 C   0  0  0  0  0  0
   -6.1303   -1.6312   -0.0110 C   0  0  0  0  0  0
   -4.3504    0.2369    0.1004 C   0  0  0  0  0  0
   -5.2818    1.3429    0.5122 C   0  0  0  0  0  0
   -2.9394    0.3932   -0.1095 C   0  0  0  0  0  0
   -2.0955    1.6129    0.0189 C   0  0  0  0  0  0
   -2.5890    2.7035    0.3114 O   0  0  0  0  0  0
    1.5827    4.2692   -2.7292 H   0  0  0  0  0  0
    2.4448    3.4040   -1.3400 H   0  0  0  0  0  0
   -0.5716    3.6837   -1.7910 H   0  0  0  0  0  0
    1.1083    2.2986    0.4270 H   0  0  0  0  0  0
   -0.2521    3.2641    0.7379 H   0  0  0  0  0  0
    1.5500   -2.2395   -0.7394 H   0  0  0  0  0  0
    1.2224   -1.7701   -2.4007 H   0  0  0  0  0  0
    3.3639   -3.4321   -0.7126 H   0  0  0  0  0  0
    5.9456   -2.4016   -1.5351 H   0  0  0  0  0  0
    5.5805   -3.9229   -0.7529 H   0  0  0  0  0  0
    4.7653   -4.8567   -2.9742 H   0  0  0  0  0  0
    5.2404   -3.3540   -3.7550 H   0  0  0  0  0  0
    6.8612   -4.9370   -3.8598 H   0  0  0  0  0  0
   -6.8066   -1.1482   -0.7165 H   0  0  0  0  0  0
   -6.1337   -2.7005   -0.2233 H   0  0  0  0  0  0
   -6.5293   -1.4896    0.9937 H   0  0  0  0  0  0
   -4.9834    1.7697    1.4698 H   0  0  0  0  0  0
   -5.2843    2.1478   -0.2230 H   0  0  0  0  0  0
   -6.3113    1.0025    0.6194 H   0  0  0  0  0  0
  1  2  2  0  0  0
  1 24  1  0  0  0
  1 25  1  0  0  0
  2  3  1  0  0  0
  2 26  1  0  0  0
  3  4  1  0  0  0
  3 27  1  0  0  0
  3 28  1  0  0  0
  4 22  1  0  0  0
  4  5  1  0  0  0
  5  6  1  0  0  0
  5 14  2  0  0  0
  6  7  1  0  0  0
  7  8  1  0  0  0
  7 29  1  0  0  0
  7 30  1  0  0  0
  8  9  2  0  0  0
  8 10  1  0  0  0
 10 11  1  0  0  0
 10 31  1  0  0  0
 11 12  1  0  0  0
 11 32  1  0  0  0
 11 33  1  0  0  0
 12 13  1  0  0  0
 12 34  1  0  0  0
 12 35  1  0  0  0
 13 36  1  0  0  0
 14 15  1  0  0  0
 15 21  2  0  0  0
 15 16  1  0  0  0
 16 17  1  0  0  0
 17 18  1  0  0  0
 17 19  2  0  0  0
 18 37  1  0  0  0
 18 38  1  0  0  0
 18 39  1  0  0  0
 19 20  1  0  0  0
 19 21  1  0  0  0
 20 40  1  0  0  0
 20 41  1  0  0  0
 20 42  1  0  0  0
 21 22  1  0  0  0
 22 23  2  0  0  0
M  END
$$$$
143
                    3D
 Schrodinger Suite 2021-2.
 50 51  0  0  1  0            999 V2000
   -2.5211   -1.3794    0.1483 C   0  0  0  0  0  0
   -1.6107   -1.1802   -0.9863 N   0  0  0  0  0  0
   -0.5322   -0.3559   -0.9084 C   0  0  0  0  0  0
    0.1154   -0.0208   -1.9007 O   0  0  0  0  0  0
   -0.0440    0.1535    0.4689 C   0  0  2  0  0  0
   -0.4627    1.4986    0.6063 O   0  0  0  0  0  0
    1.5035    0.0866    0.6299 C   0  0  1  0  0  0
    1.8501    0.5079    1.9357 O   0  0  0  0  0  0
    2.0885   -1.3218    0.4213 C   0  0  0  0  0  0
    1.4493   -2.3205    0.7565 O   0  0  0  0  0  0
    3.3090   -1.3859   -0.1329 N   0  0  0  0  0  0
    4.0329   -2.6211   -0.4159 C   0  0  0  0  0  0
    3.6442   -3.2411   -1.7709 C   0  0  0  0  0  0
    3.9226   -2.3659   -2.9521 C   0  0  0  0  0  0
    5.0673   -2.3272   -3.7068 C   0  0  0  0  0  0
    5.0114   -1.3731   -4.7648 C   0  0  0  0  0  0
    3.8230   -0.6939   -4.8045 C   0  0  0  0  0  0
    2.7472   -1.2151   -3.5385 S   0  0  0  0  0  0
   -1.9644   -1.9432   -2.2049 C   0  0  0  0  0  0
   -0.8369   -2.9010   -2.6585 C   0  0  0  0  0  0
   -1.2773   -3.7350   -3.8720 C   0  0  0  0  0  0
   -1.7407   -2.8330   -5.0277 C   0  0  0  0  0  0
   -2.8637   -1.8816   -4.5810 C   0  0  0  0  0  0
   -2.4335   -1.0394   -3.3685 C   0  0  0  0  0  0
   -0.4844   -0.4179    1.2850 H   0  0  0  0  0  0
    1.9766    0.7717   -0.0764 H   0  0  0  0  0  0
   -2.6926   -0.4505    0.6940 H   0  0  0  0  0  0
   -3.5083   -1.7258   -0.1580 H   0  0  0  0  0  0
   -2.1090   -2.1171    0.8378 H   0  0  0  0  0  0
   -0.2027    1.8071    1.4603 H   0  0  0  0  0  0
    1.5420    1.3926    2.0563 H   0  0  0  0  0  0
    3.7662   -0.5199   -0.3794 H   0  0  0  0  0  0
    5.0997   -2.3966   -0.4080 H   0  0  0  0  0  0
    3.8689   -3.3432    0.3859 H   0  0  0  0  0  0
    4.1801   -4.1828   -1.8926 H   0  0  0  0  0  0
    2.5859   -3.5058   -1.7596 H   0  0  0  0  0  0
    5.9363   -2.9456   -3.5370 H   0  0  0  0  0  0
    5.8328   -1.2207   -5.4494 H   0  0  0  0  0  0
    3.5142    0.0764   -5.4957 H   0  0  0  0  0  0
   -2.8079   -2.5928   -1.9680 H   0  0  0  0  0  0
    0.0626   -2.3497   -2.9268 H   0  0  0  0  0  0
   -0.5572   -3.5641   -1.8392 H   0  0  0  0  0  0
   -0.4551   -4.3700   -4.2030 H   0  0  0  0  0  0
   -2.0880   -4.4047   -3.5820 H   0  0  0  0  0  0
   -0.8949   -2.2516   -5.3973 H   0  0  0  0  0  0
   -2.0834   -3.4454   -5.8621 H   0  0  0  0  0  0
   -3.1448   -1.2269   -5.4064 H   0  0  0  0  0  0
   -3.7536   -2.4594   -4.3288 H   0  0  0  0  0  0
   -3.2653   -0.4141   -3.0427 H   0  0  0  0  0  0
   -1.6416   -0.3599   -3.6818 H   0  0  0  0  0  0
  1  2  1  0  0  0
  1 27  1  0  0  0
  1 28  1  0  0  0
  1 29  1  0  0  0
  2  3  1  0  0  0
  2 19  1  0  0  0
  3  4  2  0  0  0
  3  5  1  0  0  0
  5 25  1  0  0  0
  5  6  1  0  0  0
  5  7  1  0  0  0
  6 30  1  0  0  0
  7 26  1  0  0  0
  7  8  1  0  0  0
  7  9  1  0  0  0
  8 31  1  0  0  0
  9 10  2  0  0  0
  9 11  1  0  0  0
 11 12  1  0  0  0
 11 32  1  0  0  0
 12 13  1  0  0  0
 12 33  1  0  0  0
 12 34  1  0  0  0
 13 14  1  0  0  0
 13 35  1  0  0  0
 13 36  1  0  0  0
 14 18  1  0  0  0
 14 15  2  0  0  0
 15 16  1  0  0  0
 15 37  1  0  0  0
 16 17  2  0  0  0
 16 38  1  0  0  0
 17 18  1  0  0  0
 17 39  1  0  0  0
 19 24  1  0  0  0
 19 20  1  0  0  0
 19 40  1  0  0  0
 20 21  1  0  0  0
 20 41  1  0  0  0
 20 42  1  0  0  0
 21 22  1  0  0  0
 21 43  1  0  0  0
 21 44  1  0  0  0
 22 23  1  0  0  0
 22 45  1  0  0  0
 22 46  1  0  0  0
 23 24  1  0  0  0
 23 47  1  0  0  0
 23 48  1  0  0  0
 24 49  1  0  0  0
 24 50  1  0  0  0
M  END
$$$$
144
                    3D
 Schrodinger Suite 2021-2.
 52 54  0  0  1  0            999 V2000
   -8.9300   -5.6773   -0.0943 C   0  0  0  0  0  0
   -8.1151   -4.8487   -0.9676 N   0  0  0  0  0  0
   -7.0658   -4.0625   -0.5306 C   0  0  0  0  0  0
   -6.7646   -4.0754    0.7730 N   0  0  0  0  0  0
   -5.7351   -3.2982    1.1748 C   0  0  0  0  0  0
   -4.9962   -2.5110    0.2639 C   0  0  0  0  0  0
   -3.8733   -1.6280    0.7214 C   0  0  0  0  0  0
   -3.8474   -1.1850    1.8695 O   0  0  0  0  0  0
   -2.9041   -1.4064   -0.1816 N   0  0  0  0  0  0
   -1.7213   -0.5801    0.0406 C   0  0  1  0  0  0
   -0.5178   -1.0914   -0.7522 C   0  0  0  0  0  0
    0.3970    0.0661   -0.8913 N   0  3  2  0  0  0
    1.6775   -0.0826   -0.1580 C   0  0  0  0  0  0
    2.6964    1.0026   -0.5442 C   0  0  0  0  0  0
    4.0394    0.8258    0.1787 C   0  0  0  0  0  0
    5.2166    2.1484   -0.2212 S   0  0  0  0  0  0
    5.7051    1.6738   -1.9017 C   0  0  0  0  0  0
   -0.3777    1.2855   -0.5456 C   0  0  0  0  0  0
   -1.8479    0.8575   -0.4609 C   0  0  2  0  0  0
   -2.6937    1.7600    0.4205 C   0  0  0  0  0  0
   -4.1836    1.8844    0.2128 C   0  0  0  0  0  0
   -3.2719    3.0472   -0.1139 C   0  0  0  0  0  0
   -5.4171   -2.5712   -1.0845 C   0  0  0  0  0  0
   -6.4472   -3.3518   -1.4764 N   0  0  0  0  0  0
   -1.4537   -0.5738    1.0996 H   0  0  0  0  0  0
    0.6282    0.1232   -1.8729 H   0  0  0  0  0  0
   -2.2700    0.8494   -1.4679 H   0  0  0  0  0  0
   -9.6924   -6.1958   -0.6751 H   0  0  0  0  0  0
   -8.3158   -6.4233    0.4106 H   0  0  0  0  0  0
   -9.4286   -5.0664    0.6588 H   0  0  0  0  0  0
   -8.3359   -4.8236   -1.9526 H   0  0  0  0  0  0
   -5.5038   -3.3115    2.2298 H   0  0  0  0  0  0
   -2.9996   -1.8315   -1.0926 H   0  0  0  0  0  0
   -0.0513   -1.9548   -0.2756 H   0  0  0  0  0  0
   -0.8227   -1.3966   -1.7543 H   0  0  0  0  0  0
    1.4910   -0.0738    0.9171 H   0  0  0  0  0  0
    2.1041   -1.0585   -0.3945 H   0  0  0  0  0  0
    2.8517    0.9782   -1.6228 H   0  0  0  0  0  0
    2.2975    1.9906   -0.3119 H   0  0  0  0  0  0
    3.8780    0.8391    1.2571 H   0  0  0  0  0  0
    4.4878   -0.1386   -0.0620 H   0  0  0  0  0  0
    6.4747    2.3514   -2.2714 H   0  0  0  0  0  0
    6.1064    0.6604   -1.9110 H   0  0  0  0  0  0
    4.8555    1.7202   -2.5820 H   0  0  0  0  0  0
   -0.0544    1.6700    0.4235 H   0  0  0  0  0  0
   -0.2199    2.0746   -1.2813 H   0  0  0  0  0  0
   -2.3614    1.7901    1.4568 H   0  0  0  0  0  0
   -4.6266    1.3424   -0.6205 H   0  0  0  0  0  0
   -4.8075    1.9642    1.1008 H   0  0  0  0  0  0
   -3.2908    3.9054    0.5550 H   0  0  0  0  0  0
   -3.1122    3.2782   -1.1653 H   0  0  0  0  0  0
   -4.9344   -1.9923   -1.8583 H   0  0  0  0  0  0
  1  2  1  0  0  0
  1 28  1  0  0  0
  1 29  1  0  0  0
  1 30  1  0  0  0
  2  3  1  0  0  0
  2 31  1  0  0  0
  3 24  1  0  0  0
  3  4  2  0  0  0
  4  5  1  0  0  0
  5  6  2  0  0  0
  5 32  1  0  0  0
  6  7  1  0  0  0
  6 23  1  0  0  0
  7  8  2  0  0  0
  7  9  1  0  0  0
  9 10  1  0  0  0
  9 33  1  0  0  0
 10 25  1  0  0  0
 10 19  1  0  0  0
 10 11  1  0  0  0
 11 12  1  0  0  0
 11 34  1  0  0  0
 11 35  1  0  0  0
 12 26  1  0  0  0
 12 13  1  0  0  0
 12 18  1  0  0  0
 13 14  1  0  0  0
 13 36  1  0  0  0
 13 37  1  0  0  0
 14 15  1  0  0  0
 14 38  1  0  0  0
 14 39  1  0  0  0
 15 16  1  0  0  0
 15 40  1  0  0  0
 15 41  1  0  0  0
 16 17  1  0  0  0
 17 42  1  0  0  0
 17 43  1  0  0  0
 17 44  1  0  0  0
 18 19  1  0  0  0
 18 45  1  0  0  0
 18 46  1  0  0  0
 19 27  1  0  0  0
 19 20  1  0  0  0
 20 22  1  0  0  0
 20 21  1  0  0  0
 20 47  1  0  0  0
 21 22  1  0  0  0
 21 48  1  0  0  0
 21 49  1  0  0  0
 22 50  1  0  0  0
 22 51  1  0  0  0
 23 24  2  0  0  0
 23 52  1  0  0  0
M  CHG  1  12   1
M  END
$$$$
145
                    3D
 Schrodinger Suite 2021-2.
 49 51  0  0  1  0            999 V2000
   -2.1280   -0.2183    1.0156 C   0  0  0  0  0  0
   -1.1531    0.2927    0.1189 O   0  0  0  0  0  0
   -1.0919    1.6578   -0.0709 C   0  0  0  0  0  0
   -1.9619    2.5821    0.5614 C   0  0  0  0  0  0
   -1.8444    3.9650    0.3134 C   0  0  0  0  0  0
   -2.7793    4.9391    1.0002 C   0  0  0  0  0  0
   -0.8545    4.4377   -0.5698 C   0  0  0  0  0  0
    0.0131    3.5298   -1.2026 C   0  0  0  0  0  0
   -0.0993    2.1481   -0.9509 C   0  0  0  0  0  0
    0.7546    1.2811   -1.5872 O   0  0  0  0  0  0
    1.7730    0.6983   -0.8676 C   0  0  0  0  0  0
    2.4056    1.4739    0.0460 N   0  0  0  0  0  0
    3.4258    0.9368    0.7487 C   0  0  0  0  0  0
    4.0936    1.8439    1.7609 C   0  0  0  0  0  0
    3.8636   -0.3915    0.5749 C   0  0  0  0  0  0
    3.2059   -1.1950   -0.3752 C   0  0  0  0  0  0
    2.1348   -0.6479   -1.1141 C   0  0  0  0  0  0
    1.4261   -1.4651   -2.1026 C   0  0  0  0  0  0
    0.0715   -1.4349   -2.0967 N   0  0  0  0  0  0
   -0.9075   -2.1029   -2.9631 C   0  0  0  0  0  0
   -2.3158   -1.6743   -2.6115 C   0  0  0  0  0  0
   -3.1622   -2.4902   -1.6640 C   0  0  0  0  0  0
   -3.5055   -2.4419   -3.1348 C   0  0  0  0  0  0
    2.1738   -2.2071   -2.9553 N   0  3  0  0  0  0
    1.5172   -2.9939   -3.8811 O   0  0  0  0  0  0
    3.1773   -2.2672   -3.0572 H   0  0  0  0  0  0
   -2.0391   -1.3036    1.0611 H   0  0  0  0  0  0
   -1.9824    0.1672    2.0256 H   0  0  0  0  0  0
   -3.1392    0.0154    0.6800 H   0  0  0  0  0  0
   -2.7311    2.2519    1.2430 H   0  0  0  0  0  0
   -2.8489    5.8748    0.4445 H   0  0  0  0  0  0
   -3.7825    4.5194    1.0807 H   0  0  0  0  0  0
   -2.4184    5.1620    2.0044 H   0  0  0  0  0  0
   -0.7569    5.4957   -0.7646 H   0  0  0  0  0  0
    0.7714    3.8942   -1.8796 H   0  0  0  0  0  0
    5.1595    1.6247    1.8312 H   0  0  0  0  0  0
    3.9827    2.8931    1.4841 H   0  0  0  0  0  0
    3.6477    1.6999    2.7452 H   0  0  0  0  0  0
    4.6826   -0.7871    1.1578 H   0  0  0  0  0  0
    3.5144   -2.2186   -0.5263 H   0  0  0  0  0  0
   -0.3466   -0.8453   -1.3904 H   0  0  0  0  0  0
   -0.7123   -1.8358   -4.0018 H   0  0  0  0  0  0
   -0.8174   -3.1852   -2.8671 H   0  0  0  0  0  0
   -2.4426   -0.5946   -2.5496 H   0  0  0  0  0  0
   -2.7435   -3.4166   -1.2761 H   0  0  0  0  0  0
   -3.8127   -1.9504   -0.9794 H   0  0  0  0  0  0
   -4.3831   -1.8694   -3.4279 H   0  0  0  0  0  0
   -3.3138   -3.3366   -3.7238 H   0  0  0  0  0  0
    1.4358   -3.8278   -3.4434 H   0  0  0  0  0  0
  1  2  1  0  0  0
  1 27  1  0  0  0
  1 28  1  0  0  0
  1 29  1  0  0  0
  2  3  1  0  0  0
  3  9  1  0  0  0
  3  4  2  0  0  0
  4  5  1  0  0  0
  4 30  1  0  0  0
  5  6  1  0  0  0
  5  7  2  0  0  0
  6 31  1  0  0  0
  6 32  1  0  0  0
  6 33  1  0  0  0
  7  8  1  0  0  0
  7 34  1  0  0  0
  8  9  2  0  0  0
  8 35  1  0  0  0
  9 10  1  0  0  0
 10 11  1  0  0  0
 11 17  1  0  0  0
 11 12  2  0  0  0
 12 13  1  0  0  0
 13 14  1  0  0  0
 13 15  2  0  0  0
 14 36  1  0  0  0
 14 37  1  0  0  0
 14 38  1  0  0  0
 15 16  1  0  0  0
 15 39  1  0  0  0
 16 17  2  0  0  0
 16 40  1  0  0  0
 17 18  1  0  0  0
 18 19  1  0  0  0
 18 24  2  0  0  0
 19 20  1  0  0  0
 19 41  1  0  0  0
 20 21  1  0  0  0
 20 42  1  0  0  0
 20 43  1  0  0  0
 21 23  1  0  0  0
 21 22  1  0  0  0
 21 44  1  0  0  0
 22 23  1  0  0  0
 22 45  1  0  0  0
 22 46  1  0  0  0
 23 47  1  0  0  0
 23 48  1  0  0  0
 24 26  1  0  0  0
 24 25  1  0  0  0
 25 49  1  0  0  0
M  CHG  1  24   1
M  END
$$$$
146
                    3D
 Schrodinger Suite 2021-2.
 55 57  0  0  1  0            999 V2000
   -0.4002    2.1824    0.5973 O   0  0  0  0  0  0
   -0.8097    1.0807    0.2290 C   0  0  0  0  0  0
   -2.3114    0.7773    0.1599 C   0  0  0  0  0  0
   -3.1544    2.0421    0.1065 C   0  0  0  0  0  0
   -3.6149    2.6393    1.2997 C   0  0  0  0  0  0
   -4.3949    3.8108    1.2498 C   0  0  0  0  0  0
   -4.7206    4.3883    0.0073 C   0  0  0  0  0  0
   -4.2664    3.7935   -1.1858 C   0  0  0  0  0  0
   -3.4849    2.6227   -1.1367 C   0  0  0  0  0  0
    0.0050    0.0719   -0.1185 N   0  0  0  0  0  0
    1.4671    0.1055   -0.1147 C   0  0  2  0  0  0
    1.9726   -0.5382   -1.3894 C   0  0  0  0  0  0
    2.5912   -1.7276   -1.3857 C   0  0  0  0  0  0
    2.7765   -2.5294   -0.1032 C   0  0  2  0  0  0
    2.4072   -4.0212   -0.2588 C   0  0  0  0  0  0
    3.3184   -4.8393   -1.1959 C   0  0  0  0  0  0
    4.3282   -4.3090   -1.6620 O   0  0  0  0  0  0
    2.9880   -6.1242   -1.4768 N   0  0  0  0  0  0
    1.8904   -6.8813   -0.8565 C   0  0  0  0  0  0
    2.4868   -7.9555    0.0722 C   0  0  0  0  0  0
    3.4600   -8.8704   -0.6939 C   0  0  0  0  0  0
    4.4980   -8.0539   -1.4857 C   0  0  0  0  0  0
    3.8091   -6.9789   -2.3458 C   0  0  0  0  0  0
    1.9592   -2.0067    0.9463 O   0  0  0  0  0  0
    2.0804   -0.5979    1.1286 C   0  0  2  0  0  0
    1.4201   -0.2165    2.4664 C   0  0  0  0  0  0
    2.2855   -0.5257    3.5378 O   0  0  0  0  0  0
    1.8133    1.1402   -0.1254 H   0  0  0  0  0  0
    3.8208   -2.4423    0.2018 H   0  0  0  0  0  0
    3.1394   -0.3353    1.1797 H   0  0  0  0  0  0
   -2.5226    0.1665   -0.7192 H   0  0  0  0  0  0
   -2.5938    0.1850    1.0311 H   0  0  0  0  0  0
   -3.3663    2.2031    2.2561 H   0  0  0  0  0  0
   -4.7426    4.2669    2.1650 H   0  0  0  0  0  0
   -5.3183    5.2869   -0.0305 H   0  0  0  0  0  0
   -4.5168    4.2357   -2.1388 H   0  0  0  0  0  0
   -3.1379    2.1726   -2.0554 H   0  0  0  0  0  0
   -0.4217   -0.7978   -0.4035 H   0  0  0  0  0  0
    1.8379    0.0070   -2.3121 H   0  0  0  0  0  0
    2.9633   -2.1449   -2.3094 H   0  0  0  0  0  0
    2.4335   -4.4946    0.7235 H   0  0  0  0  0  0
    1.3783   -4.0829   -0.6152 H   0  0  0  0  0  0
    1.1905   -6.2666   -0.2938 H   0  0  0  0  0  0
    1.2961   -7.3545   -1.6397 H   0  0  0  0  0  0
    3.0126   -7.4720    0.8965 H   0  0  0  0  0  0
    1.6898   -8.5506    0.5189 H   0  0  0  0  0  0
    3.9605   -9.5515   -0.0052 H   0  0  0  0  0  0
    2.8932   -9.4937   -1.3866 H   0  0  0  0  0  0
    5.1932   -7.5764   -0.7940 H   0  0  0  0  0  0
    5.0930   -8.7159   -2.1155 H   0  0  0  0  0  0
    3.1703   -7.4505   -3.0942 H   0  0  0  0  0  0
    4.5575   -6.4197   -2.9089 H   0  0  0  0  0  0
    1.2360    0.8574    2.5036 H   0  0  0  0  0  0
    0.4608   -0.7178    2.5987 H   0  0  0  0  0  0
    2.4504   -1.4562    3.5280 H   0  0  0  0  0  0
  1  2  2  0  0  0
  2  3  1  0  0  0
  2 10  1  0  0  0
  3  4  1  0  0  0
  3 31  1  0  0  0
  3 32  1  0  0  0
  4  9  1  0  0  0
  4  5  2  0  0  0
  5  6  1  0  0  0
  5 33  1  0  0  0
  6  7  2  0  0  0
  6 34  1  0  0  0
  7  8  1  0  0  0
  7 35  1  0  0  0
  8  9  2  0  0  0
  8 36  1  0  0  0
  9 37  1  0  0  0
 10 11  1  0  0  0
 10 38  1  0  0  0
 11 28  1  0  0  0
 11 25  1  0  0  0
 11 12  1  0  0  0
 12 13  2  0  0  0
 12 39  1  0  0  0
 13 14  1  0  0  0
 13 40  1  0  0  0
 14 29  1  0  0  0
 14 15  1  0  0  0
 14 24  1  0  0  0
 15 16  1  0  0  0
 15 41  1  0  0  0
 15 42  1  0  0  0
 16 17  2  0  0  0
 16 18  1  0  0  0
 18 23  1  0  0  0
 18 19  1  0  0  0
 19 20  1  0  0  0
 19 43  1  0  0  0
 19 44  1  0  0  0
 20 21  1  0  0  0
 20 45  1  0  0  0
 20 46  1  0  0  0
 21 22  1  0  0  0
 21 47  1  0  0  0
 21 48  1  0  0  0
 22 23  1  0  0  0
 22 49  1  0  0  0
 22 50  1  0  0  0
 23 51  1  0  0  0
 23 52  1  0  0  0
 24 25  1  0  0  0
 25 30  1  0  0  0
 25 26  1  0  0  0
 26 27  1  0  0  0
 26 53  1  0  0  0
 26 54  1  0  0  0
 27 55  1  0  0  0
M  END
$$$$
147
                    3D
 Schrodinger Suite 2021-2.
 46 46  0  0  1  0            999 V2000
   -4.4037   -2.3246   -1.0161 C   0  0  0  0  0  0
   -3.0680   -2.4794   -0.5702 O   0  0  0  0  0  0
   -2.6979   -3.6214    0.0335 C   0  0  0  0  0  0
   -3.4248   -4.5912    0.2505 O   0  0  0  0  0  0
   -1.2261   -3.6269    0.4409 C   0  0  0  0  0  0
   -0.9928   -2.6673    1.5934 C   0  0  0  0  0  0
   -0.5689   -1.3934    1.5029 C   0  0  0  0  0  0
   -0.2459   -0.6300    0.2262 C   0  0  1  0  0  0
   -0.9964    0.7136    0.2023 C   0  0  0  0  0  0
    1.2858   -0.5035    0.0270 C   0  0  1  0  0  0
    1.7171    0.0832   -1.3318 C   0  0  0  0  0  0
    1.2958   -0.7457   -2.3940 O   0  0  0  0  0  0
    1.8838    0.2894    1.1085 N   0  0  1  0  0  0
    3.0847   -0.4138    2.1300 S   0  0  0  0  0  0
    3.4865    0.6140    3.1024 O   0  0  0  0  0  0
    2.5862   -1.7210    2.5861 O   0  0  0  0  0  0
    4.4408   -0.6637    0.9912 C   0  0  0  0  0  0
    4.7346   -1.9579    0.5172 C   0  0  0  0  0  0
    5.7887   -2.1397   -0.3989 C   0  0  0  0  0  0
    6.5445   -1.0330   -0.8397 C   0  0  0  0  0  0
    7.6747   -1.2381   -1.8270 C   0  0  0  0  0  0
    6.2457    0.2593   -0.3573 C   0  0  0  0  0  0
    5.1923    0.4464    0.5584 C   0  0  0  0  0  0
   -0.6338   -1.2076   -0.6109 H   0  0  0  0  0  0
    1.7004   -1.5114    0.0804 H   0  0  0  0  0  0
   -4.5255   -1.3483   -1.4853 H   0  0  0  0  0  0
   -4.6601   -3.0898   -1.7499 H   0  0  0  0  0  0
   -5.1031   -2.3912   -0.1820 H   0  0  0  0  0  0
   -0.9237   -4.6302    0.7419 H   0  0  0  0  0  0
   -0.6119   -3.3553   -0.4171 H   0  0  0  0  0  0
   -1.2032   -3.0667    2.5748 H   0  0  0  0  0  0
   -0.4395   -0.8362    2.4195 H   0  0  0  0  0  0
   -2.0680    0.5593    0.3339 H   0  0  0  0  0  0
   -0.6608    1.3782    0.9987 H   0  0  0  0  0  0
   -0.8629    1.2325   -0.7464 H   0  0  0  0  0  0
    1.3227    1.0886   -1.4776 H   0  0  0  0  0  0
    2.8036    0.1618   -1.3818 H   0  0  0  0  0  0
    1.5890   -0.3642   -3.2075 H   0  0  0  0  0  0
    2.1063    1.2463    0.8359 H   0  0  0  0  0  0
    4.1555   -2.8089    0.8436 H   0  0  0  0  0  0
    6.0142   -3.1308   -0.7648 H   0  0  0  0  0  0
    8.0022   -0.2910   -2.2568 H   0  0  0  0  0  0
    8.5276   -1.7028   -1.3317 H   0  0  0  0  0  0
    7.3552   -1.8870   -2.6429 H   0  0  0  0  0  0
    6.8211    1.1111   -0.6892 H   0  0  0  0  0  0
    4.9603    1.4371    0.9208 H   0  0  0  0  0  0
  1  2  1  0  0  0
  1 26  1  0  0  0
  1 27  1  0  0  0
  1 28  1  0  0  0
  2  3  1  0  0  0
  3  4  2  0  0  0
  3  5  1  0  0  0
  5  6  1  0  0  0
  5 29  1  0  0  0
  5 30  1  0  0  0
  6  7  2  0  0  0
  6 31  1  0  0  0
  7  8  1  0  0  0
  7 32  1  0  0  0
  8 24  1  0  0  0
  8  9  1  0  0  0
  8 10  1  0  0  0
  9 33  1  0  0  0
  9 34  1  0  0  0
  9 35  1  0  0  0
 10 25  1  0  0  0
 10 11  1  0  0  0
 10 13  1  0  0  0
 11 12  1  0  0  0
 11 36  1  0  0  0
 11 37  1  0  0  0
 12 38  1  0  0  0
 13 14  1  0  0  0
 13 39  1  0  0  0
 14 15  2  0  0  0
 14 16  2  0  0  0
 14 17  1  0  0  0
 17 23  1  0  0  0
 17 18  2  0  0  0
 18 19  1  0  0  0
 18 40  1  0  0  0
 19 20  2  0  0  0
 19 41  1  0  0  0
 20 21  1  0  0  0
 20 22  1  0  0  0
 21 42  1  0  0  0
 21 43  1  0  0  0
 21 44  1  0  0  0
 22 23  2  0  0  0
 22 45  1  0  0  0
 23 46  1  0  0  0
M  END
$$$$
148
                    3D
 Schrodinger Suite 2021-2.
 39 39  0  0  1  0            999 V2000
    0.7691    2.8263   -1.8821 N   0  0  0  0  0  0
   -0.0265    1.7768   -1.6597 C   0  0  0  0  0  0
   -0.4885    1.1009   -2.5771 O   0  0  0  0  0  0
   -0.3481    1.4357   -0.1926 C   0  0  2  0  0  0
    0.1768    0.0324    0.1906 C   0  0  0  0  0  0
    1.6214   -0.0803    0.0006 N   0  0  0  0  0  0
    2.2542   -1.0785   -0.6349 C   0  0  0  0  0  0
    1.6861   -2.0780   -1.0736 O   0  0  0  0  0  0
    3.7646   -0.9239   -0.8021 C   0  0  0  0  0  0
    4.0439    0.3948   -1.2465 O   0  0  0  0  0  0
    5.4284    0.6320   -1.4404 C   0  0  0  0  0  0
    5.6341    2.0804   -1.9008 C   0  0  0  0  0  0
    6.9361    2.3094   -2.0667 F   0  0  0  0  0  0
    5.0111    2.2878   -3.0607 F   0  0  0  0  0  0
    5.1641    2.9259   -0.9837 F   0  0  0  0  0  0
   -1.8653    1.5399    0.0849 C   0  0  0  0  0  0
   -2.3889    2.9667    0.0547 C   0  0  0  0  0  0
   -3.0551    3.4563   -1.0890 C   0  0  0  0  0  0
   -3.5350    4.7803   -1.1164 C   0  0  0  0  0  0
   -3.3534    5.6190    0.0002 C   0  0  0  0  0  0
   -3.8144    6.8918   -0.0262 F   0  0  0  0  0  0
   -2.6916    5.1332    1.1445 C   0  0  0  0  0  0
   -2.2099    3.8097    1.1718 C   0  0  0  0  0  0
    1.0059    3.0814   -2.8300 H   0  0  0  0  0  0
    1.1307    3.3610   -1.1060 H   0  0  0  0  0  0
    0.1623    2.1546    0.4512 H   0  0  0  0  0  0
   -0.0327   -0.1663    1.2421 H   0  0  0  0  0  0
   -0.3607   -0.7301   -0.3763 H   0  0  0  0  0  0
    2.1833    0.6915    0.3296 H   0  0  0  0  0  0
    4.2533   -1.1190    0.1537 H   0  0  0  0  0  0
    4.1324   -1.6547   -1.5244 H   0  0  0  0  0  0
    5.9719    0.4559   -0.5107 H   0  0  0  0  0  0
    5.8248   -0.0575   -2.1874 H   0  0  0  0  0  0
   -2.4297    0.9259   -0.6192 H   0  0  0  0  0  0
   -2.0866    1.1305    1.0713 H   0  0  0  0  0  0
   -3.1948    2.8195   -1.9502 H   0  0  0  0  0  0
   -4.0419    5.1525   -1.9943 H   0  0  0  0  0  0
   -2.5532    5.7759    2.0014 H   0  0  0  0  0  0
   -1.7016    3.4433    2.0517 H   0  0  0  0  0  0
  1  2  1  0  0  0
  1 24  1  0  0  0
  1 25  1  0  0  0
  2  3  2  0  0  0
  2  4  1  0  0  0
  4  5  1  0  0  0
  4 16  1  0  0  0
  4 26  1  0  0  0
  5  6  1  0  0  0
  5 27  1  0  0  0
  5 28  1  0  0  0
  6  7  1  0  0  0
  6 29  1  0  0  0
  7  8  2  0  0  0
  7  9  1  0  0  0
  9 10  1  0  0  0
  9 30  1  0  0  0
  9 31  1  0  0  0
 10 11  1  0  0  0
 11 12  1  0  0  0
 11 32  1  0  0  0
 11 33  1  0  0  0
 12 13  1  0  0  0
 12 14  1  0  0  0
 12 15  1  0  0  0
 16 17  1  0  0  0
 16 34  1  0  0  0
 16 35  1  0  0  0
 17 23  1  0  0  0
 17 18  2  0  0  0
 18 19  1  0  0  0
 18 36  1  0  0  0
 19 20  2  0  0  0
 19 37  1  0  0  0
 20 21  1  0  0  0
 20 22  1  0  0  0
 22 23  2  0  0  0
 22 38  1  0  0  0
 23 39  1  0  0  0
M  END
$$$$
149
                    3D
 Schrodinger Suite 2021-2.
 42 43  0  0  1  0            999 V2000
   -2.5728    2.7888    0.3700 C   0  0  0  0  0  0
   -2.0537    1.4694   -0.0549 N   0  3  0  0  0  0
   -2.7244    0.9951   -1.2879 C   0  0  0  0  0  0
   -0.5712    1.4584   -0.1474 C   0  0  0  0  0  0
    0.0196    0.0362   -0.1260 C   0  0  0  0  0  0
    1.5554    0.0389   -0.1041 C   0  0  0  0  0  0
    2.0902   -1.3371   -0.0921 N   0  3  0  0  0  0
    3.5630   -1.4133   -0.0722 C   0  0  0  0  0  0
    4.0154   -2.8328   -0.0510 C   0  0  0  0  0  0
    4.4372   -3.6918   -1.0250 C   0  0  0  0  0  0
    4.6963   -4.9092   -0.3293 C   0  0  0  0  0  0
    5.1685   -6.1937   -0.8704 C   0  0  0  0  0  0
    5.5132   -7.2711   -0.0189 C   0  0  0  0  0  0
    5.9633   -8.4938   -0.5539 C   0  0  0  0  0  0
    6.0750   -8.6555   -1.9470 C   0  0  0  0  0  0
    6.6814  -10.3077   -2.6709 Br  0  0  0  0  0  0
    5.7374   -7.5918   -2.8039 C   0  0  0  0  0  0
    5.2882   -6.3691   -2.2682 C   0  0  0  0  0  0
    4.4417   -4.7725    0.9658 N   0  0  0  0  0  0
    4.0083   -3.4565    1.1522 O   0  0  0  0  0  0
   -2.3042    0.8240    0.6809 H   0  0  0  0  0  0
    1.7388   -1.8144    0.7260 H   0  0  0  0  0  0
    1.7597   -1.8220   -0.9144 H   0  0  0  0  0  0
   -2.3323    3.5587   -0.3647 H   0  0  0  0  0  0
   -3.6563    2.7578    0.4902 H   0  0  0  0  0  0
   -2.1456    3.0845    1.3289 H   0  0  0  0  0  0
   -2.4651    1.6227   -2.1418 H   0  0  0  0  0  0
   -2.4511   -0.0333   -1.5223 H   0  0  0  0  0  0
   -3.8081    1.0184   -1.1680 H   0  0  0  0  0  0
   -0.2532    1.9954   -1.0427 H   0  0  0  0  0  0
   -0.1631    2.0078    0.7024 H   0  0  0  0  0  0
   -0.3527   -0.4976    0.7498 H   0  0  0  0  0  0
   -0.3171   -0.5240   -0.9983 H   0  0  0  0  0  0
    1.9409    0.5648   -0.9787 H   0  0  0  0  0  0
    1.9160    0.5706    0.7776 H   0  0  0  0  0  0
    3.9665   -0.9086   -0.9509 H   0  0  0  0  0  0
    3.9454   -0.8886    0.8043 H   0  0  0  0  0  0
    4.5426   -3.4789   -2.0785 H   0  0  0  0  0  0
    5.4382   -7.1732    1.0541 H   0  0  0  0  0  0
    6.2228   -9.3076    0.1072 H   0  0  0  0  0  0
    5.8220   -7.7124   -3.8739 H   0  0  0  0  0  0
    5.0333   -5.5686   -2.9465 H   0  0  0  0  0  0
  1  2  1  0  0  0
  1 24  1  0  0  0
  1 25  1  0  0  0
  1 26  1  0  0  0
  2 21  1  0  0  0
  2  3  1  0  0  0
  2  4  1  0  0  0
  3 27  1  0  0  0
  3 28  1  0  0  0
  3 29  1  0  0  0
  4  5  1  0  0  0
  4 30  1  0  0  0
  4 31  1  0  0  0
  5  6  1  0  0  0
  5 32  1  0  0  0
  5 33  1  0  0  0
  6  7  1  0  0  0
  6 34  1  0  0  0
  6 35  1  0  0  0
  7 22  1  0  0  0
  7 23  1  0  0  0
  7  8  1  0  0  0
  8  9  1  0  0  0
  8 36  1  0  0  0
  8 37  1  0  0  0
  9 20  1  0  0  0
  9 10  2  0  0  0
 10 11  1  0  0  0
 10 38  1  0  0  0
 11 12  1  0  0  0
 11 19  2  0  0  0
 12 18  1  0  0  0
 12 13  2  0  0  0
 13 14  1  0  0  0
 13 39  1  0  0  0
 14 15  2  0  0  0
 14 40  1  0  0  0
 15 16  1  0  0  0
 15 17  1  0  0  0
 17 18  2  0  0  0
 17 41  1  0  0  0
 18 42  1  0  0  0
 19 20  1  0  0  0
M  CHG  2   2   1   7   1
M  END
$$$$
150
                    3D
 Schrodinger Suite 2021-2.
 45 46  0  0  1  0            999 V2000
   -2.4192   -2.6034    5.6834 C   0  0  0  0  0  0
   -2.3487   -3.7951    4.7216 C   0  0  0  0  0  0
   -2.5129   -3.3727    3.2887 C   0  0  0  0  0  0
   -1.4932   -3.1658    2.3147 C   0  0  0  0  0  0
   -2.1693   -2.7802    1.1900 C   0  0  0  0  0  0
   -1.6961   -2.4017   -0.1788 C   0  0  0  0  0  0
   -0.3273   -1.8994   -0.1824 N   0  0  0  0  0  0
    0.0365   -0.6628    0.1938 C   0  0  0  0  0  0
   -0.7637    0.2047    0.5442 O   0  0  0  0  0  0
    1.5185   -0.4114    0.1968 C   0  0  0  0  0  0
    2.2862   -0.7959   -0.9269 C   0  0  0  0  0  0
    3.6776   -0.5765   -0.9701 C   0  0  0  0  0  0
    4.3677   -0.9818   -2.1437 N   0  0  0  0  0  0
    5.6582   -1.3430   -2.2711 C   0  0  0  0  0  0
    6.4621   -1.3963   -1.3399 O   0  0  0  0  0  0
    6.1081   -1.7332   -3.6858 C   0  0  0  0  0  0
    6.5044   -3.2178   -3.7397 C   0  0  0  0  0  0
    7.2593   -0.8309   -4.1609 C   0  0  0  0  0  0
    4.3083    0.0702    0.1168 C   0  0  0  0  0  0
    3.5535    0.4616    1.2372 C   0  0  0  0  0  0
    2.1663    0.2237    1.2889 C   0  0  0  0  0  0
    1.3160    0.7010    2.7198 Cl  0  0  0  0  0  0
   -3.5026   -2.7779    1.5301 N   0  0  0  0  0  0
   -3.7251   -3.1372    2.8079 N   0  0  0  0  0  0
   -4.2608   -2.5308    0.9101 H   0  0  0  0  0  0
   -2.2913   -2.9291    6.7158 H   0  0  0  0  0  0
   -1.6377   -1.8752    5.4641 H   0  0  0  0  0  0
   -3.3810   -2.0948    5.6115 H   0  0  0  0  0  0
   -1.3932   -4.3044    4.8491 H   0  0  0  0  0  0
   -3.1160   -4.5230    4.9881 H   0  0  0  0  0  0
   -0.4250   -3.2771    2.4290 H   0  0  0  0  0  0
   -1.7359   -3.2753   -0.8291 H   0  0  0  0  0  0
   -2.3642   -1.6602   -0.6200 H   0  0  0  0  0  0
    0.3987   -2.5498   -0.4453 H   0  0  0  0  0  0
    1.8039   -1.2686   -1.7710 H   0  0  0  0  0  0
    3.7978   -1.0802   -2.9712 H   0  0  0  0  0  0
    5.2679   -1.5861   -4.3665 H   0  0  0  0  0  0
    5.6930   -3.8588   -3.3925 H   0  0  0  0  0  0
    6.7438   -3.5194   -4.7598 H   0  0  0  0  0  0
    7.3794   -3.4232   -3.1215 H   0  0  0  0  0  0
    6.9869    0.2238   -4.1050 H   0  0  0  0  0  0
    8.1579   -0.9753   -3.5598 H   0  0  0  0  0  0
    7.5191   -1.0460   -5.1977 H   0  0  0  0  0  0
    5.3656    0.2866    0.1067 H   0  0  0  0  0  0
    4.0459    0.9487    2.0661 H   0  0  0  0  0  0
  1  2  1  0  0  0
  1 26  1  0  0  0
  1 27  1  0  0  0
  1 28  1  0  0  0
  2  3  1  0  0  0
  2 29  1  0  0  0
  2 30  1  0  0  0
  3 24  2  0  0  0
  3  4  1  0  0  0
  4  5  2  0  0  0
  4 31  1  0  0  0
  5  6  1  0  0  0
  5 23  1  0  0  0
  6  7  1  0  0  0
  6 32  1  0  0  0
  6 33  1  0  0  0
  7  8  1  0  0  0
  7 34  1  0  0  0
  8  9  2  0  0  0
  8 10  1  0  0  0
 10 21  1  0  0  0
 10 11  2  0  0  0
 11 12  1  0  0  0
 11 35  1  0  0  0
 12 13  1  0  0  0
 12 19  2  0  0  0
 13 14  1  0  0  0
 13 36  1  0  0  0
 14 15  2  0  0  0
 14 16  1  0  0  0
 16 17  1  0  0  0
 16 18  1  0  0  0
 16 37  1  0  0  0
 17 38  1  0  0  0
 17 39  1  0  0  0
 17 40  1  0  0  0
 18 41  1  0  0  0
 18 42  1  0  0  0
 18 43  1  0  0  0
 19 20  1  0  0  0
 19 44  1  0  0  0
 20 21  2  0  0  0
 20 45  1  0  0  0
 21 22  1  0  0  0
 23 25  1  0  0  0
 23 24  1  0  0  0
M  END
$$$$
151
                    3D
 Schrodinger Suite 2021-2.
 35 35  0  0  1  0            999 V2000
   -1.0087    3.9486    2.3791 C   0  0  0  0  0  0
   -0.8323    3.4555    0.9369 C   0  0  0  0  0  0
   -0.6045    2.0162    0.8860 N   0  0  0  0  0  0
    0.5769    1.4142    1.0893 C   0  0  0  0  0  0
    1.6104    2.0279    1.3603 O   0  0  0  0  0  0
    0.5777   -0.1164    0.9901 C   0  0  0  0  0  0
    1.8927   -0.6590    0.6587 N   0  0  0  0  0  0
    2.4206   -0.6972   -0.5732 C   0  0  0  0  0  0
    1.8227   -0.3229   -1.5824 O   0  0  0  0  0  0
    3.6786   -1.1666   -0.5483 N   0  0  0  0  0  0
    4.6013   -1.2295   -1.6283 C   0  0  0  0  0  0
    4.1856   -1.5635   -2.9394 C   0  0  0  0  0  0
    5.1238   -1.6502   -3.9837 C   0  0  0  0  0  0
    6.4860   -1.4156   -3.7274 C   0  0  0  0  0  0
    6.9178   -1.0982   -2.4254 C   0  0  0  0  0  0
    8.6031   -0.8224   -2.1534 Cl  0  0  0  0  0  0
    5.9778   -1.0068   -1.3714 C   0  0  0  0  0  0
    6.5300   -0.6014    0.2650 S   0  0  0  0  0  0
    5.9253    1.0813    0.5620 C   0  0  0  0  0  0
    6.3385    1.5195    1.7497 F   0  0  0  0  0  0
    6.3567    1.9075   -0.3897 F   0  0  0  0  0  0
   -1.2050    5.0208    2.3994 H   0  0  0  0  0  0
   -1.8455    3.4482    2.8670 H   0  0  0  0  0  0
   -0.1139    3.7652    2.9746 H   0  0  0  0  0  0
   -1.7306    3.6784    0.3608 H   0  0  0  0  0  0
   -0.0123    3.9861    0.4504 H   0  0  0  0  0  0
   -1.4023    1.4351    0.6732 H   0  0  0  0  0  0
    0.2693   -0.5256    1.9523 H   0  0  0  0  0  0
   -0.1605   -0.4471    0.2570 H   0  0  0  0  0  0
    2.4575   -0.9826    1.4303 H   0  0  0  0  0  0
    4.0657   -1.3520    0.3656 H   0  0  0  0  0  0
    3.1490   -1.7705   -3.1590 H   0  0  0  0  0  0
    4.7976   -1.9029   -4.9818 H   0  0  0  0  0  0
    7.2026   -1.4843   -4.5326 H   0  0  0  0  0  0
    4.8361    1.1149    0.5602 H   0  0  0  0  0  0
  1  2  1  0  0  0
  1 22  1  0  0  0
  1 23  1  0  0  0
  1 24  1  0  0  0
  2  3  1  0  0  0
  2 25  1  0  0  0
  2 26  1  0  0  0
  3  4  1  0  0  0
  3 27  1  0  0  0
  4  5  2  0  0  0
  4  6  1  0  0  0
  6  7  1  0  0  0
  6 28  1  0  0  0
  6 29  1  0  0  0
  7  8  1  0  0  0
  7 30  1  0  0  0
  8  9  2  0  0  0
  8 10  1  0  0  0
 10 11  1  0  0  0
 10 31  1  0  0  0
 11 17  1  0  0  0
 11 12  2  0  0  0
 12 13  1  0  0  0
 12 32  1  0  0  0
 13 14  2  0  0  0
 13 33  1  0  0  0
 14 15  1  0  0  0
 14 34  1  0  0  0
 15 16  1  0  0  0
 15 17  2  0  0  0
 17 18  1  0  0  0
 18 19  1  0  0  0
 19 20  1  0  0  0
 19 21  1  0  0  0
 19 35  1  0  0  0
M  END
$$$$
152
                    3D
 Schrodinger Suite 2021-2.
 45 47  0  0  1  0            999 V2000
    1.1379    4.2720    0.2466 C   0  0  0  0  0  0
    0.8246    2.8873    0.2286 O   0  0  0  0  0  0
   -0.5003    2.5099    0.1650 C   0  0  0  0  0  0
   -1.5704    3.4412    0.1437 C   0  0  0  0  0  0
   -2.9042    3.0040    0.0732 C   0  0  0  0  0  0
   -3.1876    1.6310    0.0221 C   0  0  0  0  0  0
   -2.1318    0.7000    0.0426 C   0  0  0  0  0  0
   -0.7691    1.1145    0.1167 C   0  0  0  0  0  0
    0.0492   -0.0705    0.1188 C   0  0  0  0  0  0
    1.5515   -0.1376    0.1854 C   0  0  0  0  0  0
    2.1393   -0.1500   -1.2265 C   0  0  0  0  0  0
    2.4846   -1.2164   -1.7373 O   0  0  0  0  0  0
    2.2439    1.0386   -1.8395 N   0  0  0  0  0  0
    2.7529    1.1499   -3.1253 N   0  0  0  0  0  0
   -0.8090   -1.1420    0.0389 C   0  0  0  0  0  0
   -0.4758   -2.6028   -0.0074 C   0  0  0  0  0  0
   -2.1266   -0.6877   -0.0040 N   0  0  0  0  0  0
   -3.3130   -1.5303   -0.0925 C   0  0  0  0  0  0
   -3.5817   -1.9829   -1.5185 C   0  0  0  0  0  0
   -3.5688   -3.3570   -1.8394 C   0  0  0  0  0  0
   -3.8158   -3.7795   -3.1600 C   0  0  0  0  0  0
   -4.0807   -2.8304   -4.1660 C   0  0  0  0  0  0
   -4.1007   -1.4581   -3.8500 C   0  0  0  0  0  0
   -4.4274   -0.2932   -5.0801 Cl  0  0  0  0  0  0
   -3.8540   -1.0358   -2.5292 C   0  0  0  0  0  0
    2.2204    4.3933    0.2839 H   0  0  0  0  0  0
    0.7814    4.7737   -0.6541 H   0  0  0  0  0  0
    0.7210    4.7643    1.1262 H   0  0  0  0  0  0
   -1.3946    4.5055    0.1801 H   0  0  0  0  0  0
   -3.7095    3.7235    0.0562 H   0  0  0  0  0  0
   -4.2129    1.2982   -0.0376 H   0  0  0  0  0  0
    1.9608    0.7036    0.7442 H   0  0  0  0  0  0
    1.8811   -1.0272    0.7221 H   0  0  0  0  0  0
    1.9422    1.8855   -1.3787 H   0  0  0  0  0  0
    3.2013    0.2718   -3.3798 H   0  0  0  0  0  0
    1.9863    1.3191   -3.7734 H   0  0  0  0  0  0
    0.5993   -2.7753    0.0074 H   0  0  0  0  0  0
   -0.9044   -3.1281    0.8460 H   0  0  0  0  0  0
   -0.8607   -3.0604   -0.9181 H   0  0  0  0  0  0
   -3.1902   -2.3890    0.5682 H   0  0  0  0  0  0
   -4.1792   -0.9838    0.2802 H   0  0  0  0  0  0
   -3.3648   -4.0922   -1.0747 H   0  0  0  0  0  0
   -3.8014   -4.8320   -3.4015 H   0  0  0  0  0  0
   -4.2689   -3.1565   -5.1784 H   0  0  0  0  0  0
   -3.8713    0.0183   -2.2952 H   0  0  0  0  0  0
  1  2  1  0  0  0
  1 26  1  0  0  0
  1 27  1  0  0  0
  1 28  1  0  0  0
  2  3  1  0  0  0
  3  8  1  0  0  0
  3  4  2  0  0  0
  4  5  1  0  0  0
  4 29  1  0  0  0
  5  6  2  0  0  0
  5 30  1  0  0  0
  6  7  1  0  0  0
  6 31  1  0  0  0
  7 17  1  0  0  0
  7  8  2  0  0  0
  8  9  1  0  0  0
  9 10  1  0  0  0
  9 15  2  0  0  0
 10 11  1  0  0  0
 10 32  1  0  0  0
 10 33  1  0  0  0
 11 12  2  0  0  0
 11 13  1  0  0  0
 13 14  1  0  0  0
 13 34  1  0  0  0
 14 35  1  0  0  0
 14 36  1  0  0  0
 15 16  1  0  0  0
 15 17  1  0  0  0
 16 37  1  0  0  0
 16 38  1  0  0  0
 16 39  1  0  0  0
 17 18  1  0  0  0
 18 19  1  0  0  0
 18 40  1  0  0  0
 18 41  1  0  0  0
 19 25  1  0  0  0
 19 20  2  0  0  0
 20 21  1  0  0  0
 20 42  1  0  0  0
 21 22  2  0  0  0
 21 43  1  0  0  0
 22 23  1  0  0  0
 22 44  1  0  0  0
 23 24  1  0  0  0
 23 25  2  0  0  0
 25 45  1  0  0  0
M  END
$$$$
153
                    3D
 Schrodinger Suite 2021-2.
 45 48  0  0  1  0            999 V2000
   -2.2299    3.6282   -0.1481 C   0  0  0  0  0  0
   -2.8761    2.2557   -0.1095 C   0  0  0  0  0  0
   -4.2252    2.2335   -0.1362 N   0  0  0  0  0  0
   -4.7982    1.0333   -0.0962 C   0  0  0  0  0  0
   -6.1704    1.0034   -0.1203 N   0  0  0  0  0  0
   -4.1770   -0.1435   -0.0347 N   0  0  0  0  0  0
   -2.8201   -0.1677   -0.0141 C   0  0  0  0  0  0
   -2.1190    1.0599   -0.0462 C   0  0  0  0  0  0
   -0.6660    1.0227   -0.0008 C   0  0  0  0  0  0
    0.0289   -0.1275    0.0914 C   0  0  0  0  0  0
    1.4716   -0.0585    0.1742 C   0  0  0  0  0  0
    2.2494    1.0105    0.7012 C   0  0  0  0  0  0
    3.5465    0.7698    0.5856 N   0  0  0  0  0  0
    3.6240   -0.4358   -0.0258 N   0  0  0  0  0  0
    4.9234   -1.0012   -0.3199 C   0  0  0  0  0  0
    2.3787   -0.9634   -0.3000 C   0  0  0  0  0  0
   -0.6918   -1.4107    0.2091 C   0  0  0  0  0  0
   -0.0858   -2.4560    0.4557 O   0  0  0  0  0  0
   -2.0574   -1.3944    0.0541 N   0  0  0  0  0  0
   -2.7697   -2.7061    0.0126 C   0  0  2  0  0  0
   -3.7055   -2.9003   -1.2040 C   0  0  0  0  0  0
   -5.0912   -3.2370   -0.6367 C   0  0  0  0  0  0
   -4.8418   -3.7610    0.7803 C   0  0  1  0  0  0
   -4.5491   -5.1435    0.7294 O   0  0  0  0  0  0
   -3.6119   -2.9909    1.2731 C   0  0  0  0  0  0
   -2.0781   -3.5454   -0.0683 H   0  0  0  0  0  0
   -5.7052   -3.6103    1.4289 H   0  0  0  0  0  0
   -1.6366    3.7934    0.7514 H   0  0  0  0  0  0
   -1.5756    3.7158   -1.0155 H   0  0  0  0  0  0
   -2.9768    4.4205   -0.2093 H   0  0  0  0  0  0
   -6.6635    0.1229   -0.0917 H   0  0  0  0  0  0
   -6.6991    1.8622   -0.1679 H   0  0  0  0  0  0
   -0.1469    1.9676   -0.0590 H   0  0  0  0  0  0
    1.9246    1.9337    1.1581 H   0  0  0  0  0  0
    4.8194   -2.0504   -0.5979 H   0  0  0  0  0  0
    5.3812   -0.4581   -1.1471 H   0  0  0  0  0  0
    5.5682   -0.9307    0.5567 H   0  0  0  0  0  0
    2.2518   -1.9126   -0.7998 H   0  0  0  0  0  0
   -3.7412   -2.0422   -1.8754 H   0  0  0  0  0  0
   -3.3483   -3.7389   -1.8034 H   0  0  0  0  0  0
   -5.6920   -2.3291   -0.5818 H   0  0  0  0  0  0
   -5.6402   -3.9422   -1.2619 H   0  0  0  0  0  0
   -4.3596   -5.4430    1.6055 H   0  0  0  0  0  0
   -3.0480   -3.5355    2.0316 H   0  0  0  0  0  0
   -3.9417   -2.0650    1.7431 H   0  0  0  0  0  0
  1  2  1  0  0  0
  1 28  1  0  0  0
  1 29  1  0  0  0
  1 30  1  0  0  0
  2  8  1  0  0  0
  2  3  2  0  0  0
  3  4  1  0  0  0
  4  5  1  0  0  0
  4  6  2  0  0  0
  5 31  1  0  0  0
  5 32  1  0  0  0
  6  7  1  0  0  0
  7 19  1  0  0  0
  7  8  2  0  0  0
  8  9  1  0  0  0
  9 10  2  0  0  0
  9 33  1  0  0  0
 10 11  1  0  0  0
 10 17  1  0  0  0
 11 16  2  0  0  0
 11 12  1  0  0  0
 12 13  2  0  0  0
 12 34  1  0  0  0
 13 14  1  0  0  0
 14 15  1  0  0  0
 14 16  1  0  0  0
 15 35  1  0  0  0
 15 36  1  0  0  0
 15 37  1  0  0  0
 16 38  1  0  0  0
 17 18  2  0  0  0
 17 19  1  0  0  0
 19 20  1  0  0  0
 20 26  1  0  0  0
 20 25  1  0  0  0
 20 21  1  0  0  0
 21 22  1  0  0  0
 21 39  1  0  0  0
 21 40  1  0  0  0
 22 23  1  0  0  0
 22 41  1  0  0  0
 22 42  1  0  0  0
 23 27  1  0  0  0
 23 24  1  0  0  0
 23 25  1  0  0  0
 24 43  1  0  0  0
 25 44  1  0  0  0
 25 45  1  0  0  0
M  END
$$$$
154
                    3D
 Schrodinger Suite 2021-2.
 55 57  0  0  1  0            999 V2000
   -2.5099    1.1929    0.3877 C   0  0  0  0  0  0
   -1.0082    1.2349    0.0865 C   0  0  0  0  0  0
   -0.3681   -0.1624    0.0964 C   0  0  0  0  0  0
    1.0995   -0.1013   -0.1145 N   0  3  2  0  0  0
    1.5142    0.3086   -1.4759 C   0  0  0  0  0  0
    2.9039   -0.1874   -1.6446 N   0  3  2  0  0  0
    3.2499   -0.6314   -3.0162 C   0  0  0  0  0  0
    3.2740    0.5390   -4.0123 C   0  0  0  0  0  0
    3.6906    0.0992   -5.4197 C   0  0  0  0  0  0
    3.1624   -1.1923   -0.5870 C   0  0  1  0  0  0
    4.3332   -0.7522    0.2889 C   0  0  0  0  0  0
    4.3944    0.5571    0.8196 C   0  0  0  0  0  0
    5.4779    0.9472    1.6292 C   0  0  0  0  0  0
    6.5113    0.0340    1.9125 C   0  0  0  0  0  0
    7.5597    0.4150    2.6975 O   0  0  0  0  0  0
    6.4595   -1.2704    1.3841 C   0  0  0  0  0  0
    5.3754   -1.6609    0.5742 C   0  0  0  0  0  0
    1.8166   -1.3642    0.1385 C   0  0  1  0  0  0
    1.8875   -1.7928    1.6028 C   0  0  0  0  0  0
    1.9946   -0.8440    2.6456 C   0  0  0  0  0  0
    2.0679   -1.2661    3.9868 C   0  0  0  0  0  0
    2.0302   -2.6388    4.2972 C   0  0  0  0  0  0
    2.1027   -3.0456    5.5971 O   0  0  0  0  0  0
    1.9177   -3.5892    3.2642 C   0  0  0  0  0  0
    1.8464   -3.1668    1.9227 C   0  0  0  0  0  0
    1.4764    0.5755    0.5338 H   0  0  0  0  0  0
    3.5159    0.5876   -1.4308 H   0  0  0  0  0  0
   -2.9358    2.1966    0.3776 H   0  0  0  0  0  0
   -3.0442    0.5976   -0.3531 H   0  0  0  0  0  0
   -2.7039    0.7606    1.3699 H   0  0  0  0  0  0
   -0.8578    1.7114   -0.8826 H   0  0  0  0  0  0
   -0.5148    1.8691    0.8243 H   0  0  0  0  0  0
   -0.5674   -0.6289    1.0619 H   0  0  0  0  0  0
   -0.8297   -0.8019   -0.6575 H   0  0  0  0  0  0
    0.8587   -0.1585   -2.2135 H   0  0  0  0  0  0
    1.4624    1.3898   -1.6061 H   0  0  0  0  0  0
    4.2402   -1.0890   -2.9929 H   0  0  0  0  0  0
    2.5539   -1.4050   -3.3443 H   0  0  0  0  0  0
    2.2914    1.0085   -4.0673 H   0  0  0  0  0  0
    3.9643    1.3060   -3.6592 H   0  0  0  0  0  0
    3.7052    0.9484   -6.1035 H   0  0  0  0  0  0
    4.6878   -0.3418   -5.4174 H   0  0  0  0  0  0
    2.9978   -0.6401   -5.8228 H   0  0  0  0  0  0
    3.4278   -2.1535   -1.0317 H   0  0  0  0  0  0
    3.6094    1.2700    0.6157 H   0  0  0  0  0  0
    5.5146    1.9488    2.0330 H   0  0  0  0  0  0
    8.1980   -0.2698    2.8281 H   0  0  0  0  0  0
    7.2497   -1.9751    1.5988 H   0  0  0  0  0  0
    5.3475   -2.6660    0.1794 H   0  0  0  0  0  0
    1.2579   -2.1327   -0.4006 H   0  0  0  0  0  0
    2.0255    0.2129    2.4270 H   0  0  0  0  0  0
    2.1541   -0.5344    4.7769 H   0  0  0  0  0  0
    2.0716   -3.9849    5.6969 H   0  0  0  0  0  0
    1.8879   -4.6438    3.4971 H   0  0  0  0  0  0
    1.7652   -3.9057    1.1389 H   0  0  0  0  0  0
  1  2  1  0  0  0
  1 28  1  0  0  0
  1 29  1  0  0  0
  1 30  1  0  0  0
  2  3  1  0  0  0
  2 31  1  0  0  0
  2 32  1  0  0  0
  3  4  1  0  0  0
  3 33  1  0  0  0
  3 34  1  0  0  0
  4 26  1  0  0  0
  4 18  1  0  0  0
  4  5  1  0  0  0
  5  6  1  0  0  0
  5 35  1  0  0  0
  5 36  1  0  0  0
  6 27  1  0  0  0
  6  7  1  0  0  0
  6 10  1  0  0  0
  7  8  1  0  0  0
  7 37  1  0  0  0
  7 38  1  0  0  0
  8  9  1  0  0  0
  8 39  1  0  0  0
  8 40  1  0  0  0
  9 41  1  0  0  0
  9 42  1  0  0  0
  9 43  1  0  0  0
 10 11  1  0  0  0
 10 18  1  0  0  0
 10 44  1  0  0  0
 11 17  1  0  0  0
 11 12  2  0  0  0
 12 13  1  0  0  0
 12 45  1  0  0  0
 13 14  2  0  0  0
 13 46  1  0  0  0
 14 15  1  0  0  0
 14 16  1  0  0  0
 15 47  1  0  0  0
 16 17  2  0  0  0
 16 48  1  0  0  0
 17 49  1  0  0  0
 18 19  1  0  0  0
 18 50  1  0  0  0
 19 25  1  0  0  0
 19 20  2  0  0  0
 20 21  1  0  0  0
 20 51  1  0  0  0
 21 22  2  0  0  0
 21 52  1  0  0  0
 22 23  1  0  0  0
 22 24  1  0  0  0
 23 53  1  0  0  0
 24 25  2  0  0  0
 24 54  1  0  0  0
 25 55  1  0  0  0
M  CHG  2   4   1   6   1
M  END
$$$$
155
                    3D
 Schrodinger Suite 2021-2.
 50 52  0  0  1  0            999 V2000
   -2.6216    4.1351    0.3038 C   0  0  0  0  0  0
   -1.6629    3.4898    1.3487 C   0  0  0  0  0  0
   -0.4217    4.4247    1.4037 C   0  0  0  0  0  0
   -2.3239    3.2401    2.7292 C   0  0  2  0  0  0
   -1.2125    2.5067    3.5183 C   0  0  0  0  0  0
   -0.5486    1.6334    2.4274 C   0  0  0  0  0  0
   -1.3511    1.9776    1.1431 C   0  0  2  0  0  0
   -0.6959    1.6158   -0.2142 C   0  0  0  0  0  0
    0.0122   -0.0957   -0.3330 S   0  0  0  0  0  0
   -0.6346   -0.9883    0.6412 O   0  0  0  0  0  0
    0.0597   -0.4608   -1.7566 O   0  0  0  0  0  0
    1.6494    0.1404    0.1616 N   0  0  1  0  0  0
    2.1923   -0.5473    1.3322 C   0  0  0  0  0  0
    3.7072   -0.5582    1.3316 C   0  0  0  0  0  0
    4.4252    0.3497    2.1393 C   0  0  0  0  0  0
    5.8340    0.3435    2.1317 C   0  0  0  0  0  0
    6.5220   -0.5712    1.3092 C   0  0  0  0  0  0
    8.3111   -0.5974    1.2984 S   0  0  0  0  0  0
    8.6624   -2.2648    1.5428 N   0  0  0  0  0  0
    8.7754   -0.2374   -0.0498 O   0  0  0  0  0  0
    8.7962    0.1297    2.4817 O   0  0  0  0  0  0
    5.8124   -1.4796    0.4991 C   0  0  0  0  0  0
    4.4042   -1.4703    0.5107 C   0  0  0  0  0  0
   -2.7493    1.3783    1.3612 C   0  0  0  0  0  0
   -3.2473    0.4306    0.7567 O   0  0  0  0  0  0
   -3.4410    2.2067    2.4356 C   0  0  0  0  0  0
   -2.8936    5.1467    0.6066 H   0  0  0  0  0  0
   -2.1370    4.2114   -0.6701 H   0  0  0  0  0  0
   -3.5560    3.5998    0.1416 H   0  0  0  0  0  0
    0.3745    4.0951    2.0675 H   0  0  0  0  0  0
    0.0276    4.5363    0.4168 H   0  0  0  0  0  0
   -0.7093    5.4225    1.7364 H   0  0  0  0  0  0
   -2.6907    4.1385    3.2265 H   0  0  0  0  0  0
   -0.4999    3.2064    3.9554 H   0  0  0  0  0  0
   -1.6168    1.9076    4.3352 H   0  0  0  0  0  0
    0.5072    1.8796    2.3191 H   0  0  0  0  0  0
   -0.6044    0.5763    2.6894 H   0  0  0  0  0  0
   -1.4376    1.7065   -1.0086 H   0  0  0  0  0  0
    0.1008    2.3150   -0.4641 H   0  0  0  0  0  0
    2.3091    0.2694   -0.6054 H   0  0  0  0  0  0
    1.8132   -0.0818    2.2413 H   0  0  0  0  0  0
    1.8425   -1.5805    1.3371 H   0  0  0  0  0  0
    3.8983    1.0542    2.7661 H   0  0  0  0  0  0
    6.3763    1.0410    2.7524 H   0  0  0  0  0  0
    9.6433   -2.4668    1.3510 H   0  0  0  0  0  0
    8.4016   -2.5639    2.4822 H   0  0  0  0  0  0
    6.3428   -2.1785   -0.1309 H   0  0  0  0  0  0
    3.8587   -2.1637   -0.1128 H   0  0  0  0  0  0
   -3.7041    1.6060    3.3064 H   0  0  0  0  0  0
   -4.3436    2.6724    2.0402 H   0  0  0  0  0  0
  1  2  1  0  0  0
  1 27  1  0  0  0
  1 28  1  0  0  0
  1 29  1  0  0  0
  2  7  1  0  0  0
  2  3  1  0  0  0
  2  4  1  0  0  0
  3 30  1  0  0  0
  3 31  1  0  0  0
  3 32  1  0  0  0
  4 26  1  0  0  0
  4  5  1  0  0  0
  4 33  1  0  0  0
  5  6  1  0  0  0
  5 34  1  0  0  0
  5 35  1  0  0  0
  6  7  1  0  0  0
  6 36  1  0  0  0
  6 37  1  0  0  0
  7  8  1  0  0  0
  7 24  1  0  0  0
  8  9  1  0  0  0
  8 38  1  0  0  0
  8 39  1  0  0  0
  9 10  2  0  0  0
  9 11  2  0  0  0
  9 12  1  0  0  0
 12 13  1  0  0  0
 12 40  1  0  0  0
 13 14  1  0  0  0
 13 41  1  0  0  0
 13 42  1  0  0  0
 14 23  1  0  0  0
 14 15  2  0  0  0
 15 16  1  0  0  0
 15 43  1  0  0  0
 16 17  2  0  0  0
 16 44  1  0  0  0
 17 18  1  0  0  0
 17 22  1  0  0  0
 18 19  1  0  0  0
 18 20  2  0  0  0
 18 21  2  0  0  0
 19 45  1  0  0  0
 19 46  1  0  0  0
 22 23  2  0  0  0
 22 47  1  0  0  0
 23 48  1  0  0  0
 24 25  2  0  0  0
 24 26  1  0  0  0
 26 49  1  0  0  0
 26 50  1  0  0  0
M  END
$$$$
156
                    3D
 Schrodinger Suite 2021-2.
 36 38  0  0  1  0            999 V2000
    0.0815   -2.3419    0.0020 N   0  0  0  0  0  0
   -0.6363   -1.1420    0.0016 C   0  0  0  0  0  0
   -2.0517   -1.1252    0.0019 C   0  0  0  0  0  0
   -2.9483   -2.6031    0.0024 Cl  0  0  0  0  0  0
   -2.7395    0.0371    0.0016 N   0  0  0  0  0  0
   -2.0284    1.1655    0.0010 C   0  0  0  0  0  0
   -0.6992    1.2707    0.0005 N   0  0  0  0  0  0
    0.0113    0.1182    0.0007 C   0  0  0  0  0  0
    1.4125    0.2065    0.0005 N   0  0  0  0  0  0
    1.9570    0.7917   -1.2218 C   0  0  0  0  0  0
    3.4944    0.7245   -1.2224 C   0  0  0  0  0  0
    4.0389    1.2883    0.0100 N   0  0  0  0  0  0
    5.4402    1.3765    0.0117 C   0  0  0  0  0  0
    6.1506    0.2242   -0.0086 N   0  0  0  0  0  0
    7.4799    0.3294   -0.0063 C   0  0  0  0  0  0
    8.1909    1.4576    0.0140 N   0  0  0  0  0  0
    7.5032    2.6197    0.0346 C   0  0  0  0  0  0
    8.3997    4.0974    0.0609 Cl  0  0  0  0  0  0
    6.0878    2.6365    0.0346 C   0  0  0  0  0  0
    5.3699    3.8362    0.0559 N   0  0  0  0  0  0
    3.4946    0.7041    1.2329 C   0  0  0  0  0  0
    1.9568    0.7692    1.2334 C   0  0  0  0  0  0
   -0.3849   -3.2380   -0.0005 H   0  0  0  0  0  0
    1.0918   -2.3483   -0.0010 H   0  0  0  0  0  0
   -2.5870    2.0895    0.0010 H   0  0  0  0  0  0
    1.5607    0.2681   -2.0926 H   0  0  0  0  0  0
    1.6364    1.8318   -1.2994 H   0  0  0  0  0  0
    3.8151   -0.3141   -1.3181 H   0  0  0  0  0  0
    3.8908    1.2632   -2.0839 H   0  0  0  0  0  0
    8.0385   -0.5945   -0.0224 H   0  0  0  0  0  0
    5.8364    4.7322    0.0691 H   0  0  0  0  0  0
    4.3597    3.8427    0.0530 H   0  0  0  0  0  0
    3.8170   -0.3352    1.3116 H   0  0  0  0  0  0
    3.8901    1.2293    2.1031 H   0  0  0  0  0  0
    1.6345    1.8070    1.3303 H   0  0  0  0  0  0
    1.5614    0.2288    2.0944 H   0  0  0  0  0  0
  1  2  1  0  0  0
  1 23  1  0  0  0
  1 24  1  0  0  0
  2  8  1  0  0  0
  2  3  2  0  0  0
  3  4  1  0  0  0
  3  5  1  0  0  0
  5  6  2  0  0  0
  6  7  1  0  0  0
  6 25  1  0  0  0
  7  8  2  0  0  0
  8  9  1  0  0  0
  9 22  1  0  0  0
  9 10  1  0  0  0
 10 11  1  0  0  0
 10 26  1  0  0  0
 10 27  1  0  0  0
 11 12  1  0  0  0
 11 28  1  0  0  0
 11 29  1  0  0  0
 12 13  1  0  0  0
 12 21  1  0  0  0
 13 19  1  0  0  0
 13 14  2  0  0  0
 14 15  1  0  0  0
 15 16  2  0  0  0
 15 30  1  0  0  0
 16 17  1  0  0  0
 17 18  1  0  0  0
 17 19  2  0  0  0
 19 20  1  0  0  0
 20 31  1  0  0  0
 20 32  1  0  0  0
 21 22  1  0  0  0
 21 33  1  0  0  0
 21 34  1  0  0  0
 22 35  1  0  0  0
 22 36  1  0  0  0
M  END
$$$$
157
                    3D
 Schrodinger Suite 2021-2.
 52 54  0  0  1  0            999 V2000
    0.7913    5.5874   -0.6330 C   0  0  0  0  0  0
    0.0930    4.4471   -0.4770 C   0  0  0  0  0  0
   -0.2267    3.9121    0.9034 C   0  0  0  0  0  0
    0.3031    2.4831    1.0717 C   0  0  0  0  0  0
   -0.1912    1.5468   -0.0646 C   0  0  1  0  0  0
    0.2015    2.1086   -1.4905 C   0  0  1  0  0  0
    1.7340    2.2116   -1.7275 C   0  0  0  0  0  0
   -0.4112    1.1786   -2.5710 C   0  0  0  0  0  0
   -0.1131   -0.3093   -2.3546 C   0  0  0  0  0  0
   -0.6177   -0.7740   -0.9845 C   0  0  1  0  0  0
   -0.4366   -2.1740   -0.8926 O   0  0  0  0  0  0
    0.0190    0.0044    0.2091 C   0  0  2  0  0  0
   -0.7804   -0.3791    1.4864 C   0  0  0  0  0  0
    1.5221   -0.3616    0.4339 C   0  0  0  0  0  0
    1.7190   -1.6435    0.9995 O   0  0  0  0  0  0
   -0.4182    3.5511   -1.6147 C   0  0  2  0  0  0
   -0.3327    4.2015   -3.0268 C   0  0  0  0  0  0
   -1.2338    5.4165   -3.1776 C   0  0  0  0  0  0
   -0.8748    6.6032   -3.7035 C   0  0  0  0  0  0
    0.6985    7.0705   -4.3473 S   0  0  0  0  0  0
    0.1493    8.6676   -4.7411 C   0  0  0  0  0  0
    1.0775    9.8540   -5.4377 S   0  0  0  0  0  0
   -1.1456    8.7837   -4.3913 N   0  0  0  0  0  0
   -1.7759    7.7393   -3.8340 C   0  0  0  0  0  0
   -2.9571    7.7773   -3.4923 O   0  0  0  0  0  0
   -1.2775    1.6519   -0.0365 H   0  0  0  0  0  0
   -1.6967   -0.6117   -0.9660 H   0  0  0  0  0  0
   -1.4875    3.4449   -1.4242 H   0  0  0  0  0  0
    1.1245    6.1525    0.2251 H   0  0  0  0  0  0
    1.0559    5.9790   -1.6018 H   0  0  0  0  0  0
    0.1912    4.5596    1.6752 H   0  0  0  0  0  0
   -1.3090    3.9263    1.0373 H   0  0  0  0  0  0
    1.3913    2.5066    1.1115 H   0  0  0  0  0  0
   -0.0222    2.1308    2.0481 H   0  0  0  0  0  0
    1.9541    2.6938   -2.6788 H   0  0  0  0  0  0
    2.2420    2.7924   -0.9592 H   0  0  0  0  0  0
    2.2288    1.2494   -1.7859 H   0  0  0  0  0  0
   -1.4938    1.3124   -2.5967 H   0  0  0  0  0  0
   -0.0483    1.4470   -3.5628 H   0  0  0  0  0  0
   -0.6108   -0.8824   -3.1383 H   0  0  0  0  0  0
    0.9505   -0.5136   -2.4704 H   0  0  0  0  0  0
    0.4885   -2.3513   -0.8133 H   0  0  0  0  0  0
   -0.8473   -1.4595    1.6170 H   0  0  0  0  0  0
   -0.3186    0.0065    2.3945 H   0  0  0  0  0  0
   -1.8049   -0.0077    1.4513 H   0  0  0  0  0  0
    2.0898   -0.3562   -0.4898 H   0  0  0  0  0  0
    2.0023    0.3479    1.1055 H   0  0  0  0  0  0
    2.6455   -1.7755    1.1308 H   0  0  0  0  0  0
    0.6952    4.4471   -3.2886 H   0  0  0  0  0  0
   -0.6799    3.5096   -3.7908 H   0  0  0  0  0  0
   -2.2508    5.2770   -2.8388 H   0  0  0  0  0  0
   -1.6293    9.6550   -4.5529 H   0  0  0  0  0  0
  1  2  2  0  0  0
  1 29  1  0  0  0
  1 30  1  0  0  0
  2 16  1  0  0  0
  2  3  1  0  0  0
  3  4  1  0  0  0
  3 31  1  0  0  0
  3 32  1  0  0  0
  4  5  1  0  0  0
  4 33  1  0  0  0
  4 34  1  0  0  0
  5 26  1  0  0  0
  5 12  1  0  0  0
  5  6  1  0  0  0
  6  7  1  0  0  0
  6  8  1  0  0  0
  6 16  1  0  0  0
  7 35  1  0  0  0
  7 36  1  0  0  0
  7 37  1  0  0  0
  8  9  1  0  0  0
  8 38  1  0  0  0
  8 39  1  0  0  0
  9 10  1  0  0  0
  9 40  1  0  0  0
  9 41  1  0  0  0
 10 27  1  0  0  0
 10 11  1  0  0  0
 10 12  1  0  0  0
 11 42  1  0  0  0
 12 13  1  0  0  0
 12 14  1  0  0  0
 13 43  1  0  0  0
 13 44  1  0  0  0
 13 45  1  0  0  0
 14 15  1  0  0  0
 14 46  1  0  0  0
 14 47  1  0  0  0
 15 48  1  0  0  0
 16 28  1  0  0  0
 16 17  1  0  0  0
 17 18  1  0  0  0
 17 49  1  0  0  0
 17 50  1  0  0  0
 18 19  2  0  0  0
 18 51  1  0  0  0
 19 24  1  0  0  0
 19 20  1  0  0  0
 20 21  1  0  0  0
 21 22  2  0  0  0
 21 23  1  0  0  0
 23 24  1  0  0  0
 23 52  1  0  0  0
 24 25  2  0  0  0
M  END
$$$$
158
                    3D
 Schrodinger Suite 2021-2.
 43 45  0  0  1  0            999 V2000
   -2.4913   -4.3379   -0.7981 C   0  0  0  0  0  0
   -2.6724   -3.5848    0.5245 C   0  0  0  0  0  0
   -2.9565   -2.1801    0.3025 N   0  0  0  0  0  0
   -4.1926   -1.5733    0.3055 C   0  0  0  0  0  0
   -4.1821   -0.2879    0.0739 N   0  0  0  0  0  0
   -2.8370    0.0101   -0.1049 C   0  0  0  0  0  0
   -2.1205    1.1996   -0.3939 C   0  0  0  0  0  0
   -2.7575    2.3848   -0.5317 N   0  0  0  0  0  0
   -2.2790    3.5055   -1.1181 C   0  0  0  0  0  0
   -2.6855    4.7538   -0.6037 C   0  0  0  0  0  0
   -2.2311    5.9497   -1.1910 C   0  0  0  0  0  0
   -1.3714    5.9075   -2.3045 C   0  0  0  0  0  0
   -0.9656    4.6667   -2.8412 C   0  0  0  0  0  0
   -0.0513    4.6035   -4.0556 C   0  0  0  0  0  0
    0.8445    3.6266   -3.9098 F   0  0  0  0  0  0
   -0.7814    4.3581   -5.1427 F   0  0  0  0  0  0
    0.6071    5.7499   -4.2320 F   0  0  0  0  0  0
   -1.4327    3.4722   -2.2521 C   0  0  0  0  0  0
   -0.7670    1.1144   -0.4855 N   0  0  0  0  0  0
   -0.1476   -0.0606   -0.3350 C   0  0  0  0  0  0
    1.2271   -0.0067   -0.4806 N   0  0  0  0  0  0
    2.0977   -1.1709   -0.5809 C   0  0  0  0  0  0
    2.0828   -1.7989   -1.9851 C   0  0  0  0  0  0
    1.2326   -2.9253   -2.0178 O   0  0  0  0  0  0
   -0.6974   -1.2507   -0.0684 N   0  0  0  0  0  0
   -2.0530   -1.1670    0.0395 C   0  0  0  0  0  0
   -2.2747   -5.3910   -0.6188 H   0  0  0  0  0  0
   -3.3924   -4.2817   -1.4093 H   0  0  0  0  0  0
   -1.6658   -3.9231   -1.3778 H   0  0  0  0  0  0
   -3.4873   -4.0226    1.1019 H   0  0  0  0  0  0
   -1.7711   -3.6660    1.1333 H   0  0  0  0  0  0
   -5.1085   -2.1181    0.4840 H   0  0  0  0  0  0
   -3.6720    2.4500   -0.1078 H   0  0  0  0  0  0
   -3.3459    4.8001    0.2502 H   0  0  0  0  0  0
   -2.5437    6.9013   -0.7870 H   0  0  0  0  0  0
   -1.0333    6.8331   -2.7462 H   0  0  0  0  0  0
   -1.1400    2.5272   -2.6857 H   0  0  0  0  0  0
    1.6268    0.8956   -0.6945 H   0  0  0  0  0  0
    3.1060   -0.8145   -0.3696 H   0  0  0  0  0  0
    1.8705   -1.9052    0.1934 H   0  0  0  0  0  0
    1.7927   -1.0794   -2.7520 H   0  0  0  0  0  0
    3.0847   -2.1457   -2.2389 H   0  0  0  0  0  0
    1.2528   -3.2915   -2.8887 H   0  0  0  0  0  0
  1  2  1  0  0  0
  1 27  1  0  0  0
  1 28  1  0  0  0
  1 29  1  0  0  0
  2  3  1  0  0  0
  2 30  1  0  0  0
  2 31  1  0  0  0
  3 26  1  0  0  0
  3  4  1  0  0  0
  4  5  2  0  0  0
  4 32  1  0  0  0
  5  6  1  0  0  0
  6 26  2  0  0  0
  6  7  1  0  0  0
  7  8  1  0  0  0
  7 19  2  0  0  0
  8  9  1  0  0  0
  8 33  1  0  0  0
  9 18  1  0  0  0
  9 10  2  0  0  0
 10 11  1  0  0  0
 10 34  1  0  0  0
 11 12  2  0  0  0
 11 35  1  0  0  0
 12 13  1  0  0  0
 12 36  1  0  0  0
 13 14  1  0  0  0
 13 18  2  0  0  0
 14 15  1  0  0  0
 14 16  1  0  0  0
 14 17  1  0  0  0
 18 37  1  0  0  0
 19 20  1  0  0  0
 20 21  1  0  0  0
 20 25  2  0  0  0
 21 22  1  0  0  0
 21 38  1  0  0  0
 22 23  1  0  0  0
 22 39  1  0  0  0
 22 40  1  0  0  0
 23 24  1  0  0  0
 23 41  1  0  0  0
 23 42  1  0  0  0
 24 43  1  0  0  0
 25 26  1  0  0  0
M  END
$$$$
159
                    3D
 Schrodinger Suite 2021-2.
 62 66  0  0  1  0            999 V2000
   -3.1132   -0.5252   -0.6957 C   0  0  0  0  0  0
   -1.8974   -1.4895   -0.8218 C   0  0  2  0  0  0
   -2.3223   -2.7899   -1.5342 C   0  0  0  0  0  0
   -3.2768   -3.6383   -0.6591 C   0  0  0  0  0  0
   -2.7043   -3.9227    0.7588 C   0  0  2  0  0  0
   -3.6039   -4.7778    1.6634 C   0  0  0  0  0  0
   -4.4277   -5.7894    1.1136 C   0  0  0  0  0  0
   -5.2348   -6.5936    1.9398 C   0  0  0  0  0  0
   -5.2234   -6.4056    3.3327 C   0  0  0  0  0  0
   -6.0039   -7.1844    4.1365 O   0  0  0  0  0  0
   -4.3997   -5.4146    3.8959 C   0  0  0  0  0  0
   -3.5867   -4.6052    3.0748 C   0  0  0  0  0  0
   -2.7186   -3.5506    3.7476 C   0  0  0  0  0  0
   -1.6530   -2.9403    2.8303 C   0  0  0  0  0  0
   -2.2468   -2.6126    1.4556 C   0  0  1  0  0  0
   -1.2628   -1.8781    0.5251 C   0  0  2  0  0  0
   -0.5715   -0.5976    1.0043 C   0  0  0  0  0  0
   -0.0788    0.0809   -0.2996 C   0  0  1  0  0  0
    1.4529    0.1500   -0.3892 C   0  0  0  0  0  0
    2.1287   -0.8731   -0.2719 O   0  0  0  0  0  0
    1.9842    1.3652   -0.5932 N   0  0  0  0  0  0
    3.4100    1.6537   -0.6951 C   0  0  0  0  0  0
    4.0158    1.9989    0.6753 C   0  0  2  0  0  0
    5.4776    2.4324    0.6050 C   0  0  0  0  0  0
    5.9373    2.1788    2.0231 C   0  0  0  0  0  0
    5.1743    0.9071    2.3897 C   0  0  0  0  0  0
    4.0346    0.8624    1.5339 O   0  0  0  0  0  0
   -0.6954   -0.7570   -1.4536 C   0  0  2  0  0  0
   -1.0211    0.0372   -2.5784 O   0  0  0  0  0  0
   -1.8138   -4.5358    0.6100 H   0  0  0  0  0  0
   -3.1140   -1.9768    1.6324 H   0  0  0  0  0  0
   -0.4528   -2.5834    0.3233 H   0  0  0  0  0  0
    0.0239   -1.5026   -1.7985 H   0  0  0  0  0  0
   -3.5091   -0.2682   -1.6785 H   0  0  0  0  0  0
   -3.9424   -0.9538   -0.1366 H   0  0  0  0  0  0
   -2.8546    0.4125   -0.2052 H   0  0  0  0  0  0
   -2.7932   -2.5624   -2.4912 H   0  0  0  0  0  0
   -1.4396   -3.3870   -1.7677 H   0  0  0  0  0  0
   -4.2471   -3.1493   -0.5738 H   0  0  0  0  0  0
   -3.4558   -4.5691   -1.1948 H   0  0  0  0  0  0
   -4.4528   -5.9759    0.0521 H   0  0  0  0  0  0
   -5.8584   -7.3580    1.4996 H   0  0  0  0  0  0
   -6.5148   -7.8171    3.6554 H   0  0  0  0  0  0
   -4.3898   -5.2752    4.9673 H   0  0  0  0  0  0
   -3.3813   -2.7610    4.1036 H   0  0  0  0  0  0
   -2.2427   -3.9774    4.6313 H   0  0  0  0  0  0
   -1.2357   -2.0520    3.3045 H   0  0  0  0  0  0
   -0.8274   -3.6429    2.7080 H   0  0  0  0  0  0
   -1.2791    0.0501    1.5228 H   0  0  0  0  0  0
    0.2314   -0.8185    1.7097 H   0  0  0  0  0  0
   -0.4843    1.0944   -0.3222 H   0  0  0  0  0  0
    1.3533    2.1489   -0.6791 H   0  0  0  0  0  0
    3.9452    0.8223   -1.1576 H   0  0  0  0  0  0
    3.5242    2.5044   -1.3674 H   0  0  0  0  0  0
    3.4333    2.7838    1.1610 H   0  0  0  0  0  0
    6.0347    1.7994   -0.0874 H   0  0  0  0  0  0
    5.5994    3.4707    0.2954 H   0  0  0  0  0  0
    7.0185    2.0685    2.1112 H   0  0  0  0  0  0
    5.6247    3.0020    2.6671 H   0  0  0  0  0  0
    5.7833    0.0221    2.2022 H   0  0  0  0  0  0
    4.8791    0.8979    3.4392 H   0  0  0  0  0  0
   -1.3870   -0.5243   -3.2447 H   0  0  0  0  0  0
  1  2  1  0  0  0
  1 34  1  0  0  0
  1 35  1  0  0  0
  1 36  1  0  0  0
  2 16  1  0  0  0
  2 28  1  0  0  0
  2  3  1  0  0  0
  3  4  1  0  0  0
  3 37  1  0  0  0
  3 38  1  0  0  0
  4  5  1  0  0  0
  4 39  1  0  0  0
  4 40  1  0  0  0
  5 30  1  0  0  0
  5 15  1  0  0  0
  5  6  1  0  0  0
  6 12  2  0  0  0
  6  7  1  0  0  0
  7  8  2  0  0  0
  7 41  1  0  0  0
  8  9  1  0  0  0
  8 42  1  0  0  0
  9 10  1  0  0  0
  9 11  2  0  0  0
 10 43  1  0  0  0
 11 12  1  0  0  0
 11 44  1  0  0  0
 12 13  1  0  0  0
 13 14  1  0  0  0
 13 45  1  0  0  0
 13 46  1  0  0  0
 14 15  1  0  0  0
 14 47  1  0  0  0
 14 48  1  0  0  0
 15 31  1  0  0  0
 15 16  1  0  0  0
 16 32  1  0  0  0
 16 17  1  0  0  0
 17 18  1  0  0  0
 17 49  1  0  0  0
 17 50  1  0  0  0
 18 19  1  0  0  0
 18 28  1  0  0  0
 18 51  1  0  0  0
 19 20  2  0  0  0
 19 21  1  0  0  0
 21 22  1  0  0  0
 21 52  1  0  0  0
 22 23  1  0  0  0
 22 53  1  0  0  0
 22 54  1  0  0  0
 23 27  1  0  0  0
 23 24  1  0  0  0
 23 55  1  0  0  0
 24 25  1  0  0  0
 24 56  1  0  0  0
 24 57  1  0  0  0
 25 26  1  0  0  0
 25 58  1  0  0  0
 25 59  1  0  0  0
 26 27  1  0  0  0
 26 60  1  0  0  0
 26 61  1  0  0  0
 28 33  1  0  0  0
 28 29  1  0  0  0
 29 62  1  0  0  0
M  END
$$$$
160
                    3D
 Schrodinger Suite 2021-2.
 41 44  0  0  1  0            999 V2000
   -0.3240    1.0971    0.4892 C   0  0  0  0  0  0
    0.6079   -0.0150    0.3153 N   0  0  1  0  0  0
    2.2777    0.3399    0.0586 S   0  0  0  0  0  0
    2.6748    1.3540    1.0481 O   0  0  0  0  0  0
    2.9927   -0.9425   -0.0274 O   0  0  0  0  0  0
    2.2755    1.0939   -1.5640 C   0  0  0  0  0  0
    1.6530    0.4118   -2.6403 C   0  0  0  0  0  0
    1.6232    0.9919   -3.9285 C   0  0  0  0  0  0
    2.2264    2.2511   -4.0850 C   0  0  0  0  0  0
    2.8339    2.9220   -3.0380 C   0  0  0  0  0  0
    2.8748    2.3623   -1.7473 C   0  0  0  0  0  0
    3.3478    4.1839   -3.5644 C   0  0  0  0  0  0
    4.0158    5.1248   -2.8566 C   0  0  0  0  0  0
    4.5971    6.4078   -3.1401 C   0  0  0  0  0  0
    4.4989    7.0370   -4.3677 N   0  0  0  0  0  0
    5.1486    8.2540   -4.3646 C   0  0  0  0  0  0
    5.6757    8.3897   -3.1123 C   0  0  0  0  0  0
    5.3325    7.2494   -2.3467 C   0  0  0  0  0  0
    5.7776    7.1458   -0.9209 C   0  0  0  0  0  0
    7.0452    8.0143   -0.7485 C   0  0  0  0  0  0
    6.9613    9.3239   -1.3431 O   0  0  0  0  0  0
    6.4586    9.5320   -2.6022 C   0  0  0  0  0  0
    6.6038   10.5794   -3.2297 O   0  0  0  0  0  0
    2.9915    4.1862   -4.9910 C   0  0  0  0  0  0
    3.2168    5.0326   -5.8525 O   0  0  0  0  0  0
    2.3379    3.0352   -5.2333 N   0  0  0  0  0  0
    4.0106    6.6523   -5.1650 H   0  0  0  0  0  0
   -1.3423    0.7181    0.5734 H   0  0  0  0  0  0
   -0.0829    1.6539    1.3949 H   0  0  0  0  0  0
   -0.2740    1.7733   -0.3644 H   0  0  0  0  0  0
    0.4911   -0.7198    1.0433 H   0  0  0  0  0  0
    1.1996   -0.5547   -2.4771 H   0  0  0  0  0  0
    1.1544    0.4858   -4.7594 H   0  0  0  0  0  0
    3.3474    2.8832   -0.9285 H   0  0  0  0  0  0
    4.1463    4.8685   -1.8158 H   0  0  0  0  0  0
    5.1728    8.8896   -5.2378 H   0  0  0  0  0  0
    4.9759    7.5092   -0.2777 H   0  0  0  0  0  0
    5.9759    6.1081   -0.6520 H   0  0  0  0  0  0
    7.2928    8.1130    0.3083 H   0  0  0  0  0  0
    7.8883    7.5042   -1.2159 H   0  0  0  0  0  0
    1.9696    2.7491   -6.1290 H   0  0  0  0  0  0
  1  2  1  0  0  0
  1 28  1  0  0  0
  1 29  1  0  0  0
  1 30  1  0  0  0
  2  3  1  0  0  0
  2 31  1  0  0  0
  3  4  2  0  0  0
  3  5  2  0  0  0
  3  6  1  0  0  0
  6 11  1  0  0  0
  6  7  2  0  0  0
  7  8  1  0  0  0
  7 32  1  0  0  0
  8  9  2  0  0  0
  8 33  1  0  0  0
  9 26  1  0  0  0
  9 10  1  0  0  0
 10 11  2  0  0  0
 10 12  1  0  0  0
 11 34  1  0  0  0
 12 13  2  0  0  0
 12 24  1  0  0  0
 13 14  1  0  0  0
 13 35  1  0  0  0
 14 18  2  0  0  0
 14 15  1  0  0  0
 15 27  1  0  0  0
 15 16  1  0  0  0
 16 17  2  0  0  0
 16 36  1  0  0  0
 17 22  1  0  0  0
 17 18  1  0  0  0
 18 19  1  0  0  0
 19 20  1  0  0  0
 19 37  1  0  0  0
 19 38  1  0  0  0
 20 21  1  0  0  0
 20 39  1  0  0  0
 20 40  1  0  0  0
 21 22  1  0  0  0
 22 23  2  0  0  0
 24 25  2  0  0  0
 24 26  1  0  0  0
 26 41  1  0  0  0
M  END
$$$$
161
                    3D
 Schrodinger Suite 2021-2.
 53 55  0  0  1  0            999 V2000
  -10.7377    0.5242   -0.0463 C   0  0  0  0  0  0
   -9.2421    0.7467    0.0413 C   0  0  0  0  0  0
   -8.6038    0.8370    1.2959 C   0  0  0  0  0  0
   -7.2120    1.0418    1.3682 C   0  0  0  0  0  0
   -6.4509    1.1586    0.1866 C   0  0  0  0  0  0
   -4.9526    1.3704    0.2585 C   0  0  0  0  0  0
   -4.2573    0.1364    0.1497 O   0  0  0  0  0  0
   -2.8793    0.1603    0.1381 C   0  0  0  0  0  0
   -2.2215   -1.0789   -0.0082 C   0  0  0  0  0  0
   -0.8162   -1.1503   -0.0452 C   0  0  0  0  0  0
   -0.0562    0.0300    0.0602 C   0  0  0  0  0  0
    1.7318   -0.0548   -0.0151 S   0  0  0  0  0  0
    2.2783    1.1539    0.6205 O   0  0  0  0  0  0
    2.1455   -1.3763    0.4828 O   0  0  0  0  0  0
    2.0394   -0.0098   -1.7431 N   0  0  1  0  0  0
    1.7302   -1.2803   -2.4469 C   0  0  0  0  0  0
    2.2651   -1.3288   -3.8816 C   0  0  0  0  0  0
    1.7362   -0.1430   -4.6800 C   0  0  2  0  0  0
    2.2329   -0.1933   -6.0012 O   0  0  0  0  0  0
    2.2119    1.1339   -3.9920 C   0  0  0  0  0  0
    1.7329    1.2364   -2.5216 C   0  0  2  0  0  0
    2.3328    2.5410   -1.9505 C   0  0  0  0  0  0
    3.5453    2.6063   -1.7541 O   0  0  0  0  0  0
    1.5255    3.5445   -1.5685 N   0  0  0  0  0  0
    0.3573    3.7174   -2.3407 O   0  0  0  0  0  0
   -0.6947    1.2745    0.2218 C   0  0  0  0  0  0
   -2.1009    1.3402    0.2593 C   0  0  0  0  0  0
   -7.0895    1.0666   -1.0673 C   0  0  0  0  0  0
   -8.4808    0.8620   -1.1396 C   0  0  0  0  0  0
    0.6464   -0.1680   -4.7198 H   0  0  0  0  0  0
    0.6458    1.3084   -2.5396 H   0  0  0  0  0  0
  -11.1906    0.4605    0.9436 H   0  0  0  0  0  0
  -11.2104    1.3456   -0.5853 H   0  0  0  0  0  0
  -10.9500   -0.4034   -0.5783 H   0  0  0  0  0  0
   -9.1775    0.7480    2.2068 H   0  0  0  0  0  0
   -6.7313    1.1059    2.3334 H   0  0  0  0  0  0
   -4.6603    2.0421   -0.5503 H   0  0  0  0  0  0
   -4.7049    1.8596    1.2019 H   0  0  0  0  0  0
   -2.8021   -1.9853   -0.0990 H   0  0  0  0  0  0
   -0.3291   -2.1069   -0.1648 H   0  0  0  0  0  0
    2.1500   -2.1204   -1.8948 H   0  0  0  0  0  0
    0.6494   -1.4218   -2.4595 H   0  0  0  0  0  0
    3.3560   -1.3248   -3.8690 H   0  0  0  0  0  0
    1.9620   -2.2646   -4.3528 H   0  0  0  0  0  0
    3.1772   -0.1691   -5.9694 H   0  0  0  0  0  0
    3.3023    1.1739   -4.0336 H   0  0  0  0  0  0
    1.8553    1.9982   -4.5552 H   0  0  0  0  0  0
    1.8735    4.4493   -1.2846 H   0  0  0  0  0  0
   -0.1271    4.3724   -1.8615 H   0  0  0  0  0  0
   -0.1147    2.1806    0.3107 H   0  0  0  0  0  0
   -2.5592    2.3099    0.3788 H   0  0  0  0  0  0
   -6.5133    1.1502   -1.9771 H   0  0  0  0  0  0
   -8.9627    0.7922   -2.1038 H   0  0  0  0  0  0
  1  2  1  0  0  0
  1 32  1  0  0  0
  1 33  1  0  0  0
  1 34  1  0  0  0
  2 29  1  0  0  0
  2  3  2  0  0  0
  3  4  1  0  0  0
  3 35  1  0  0  0
  4  5  2  0  0  0
  4 36  1  0  0  0
  5  6  1  0  0  0
  5 28  1  0  0  0
  6  7  1  0  0  0
  6 37  1  0  0  0
  6 38  1  0  0  0
  7  8  1  0  0  0
  8 27  1  0  0  0
  8  9  2  0  0  0
  9 10  1  0  0  0
  9 39  1  0  0  0
 10 11  2  0  0  0
 10 40  1  0  0  0
 11 12  1  0  0  0
 11 26  1  0  0  0
 12 13  2  0  0  0
 12 14  2  0  0  0
 12 15  1  0  0  0
 15 21  1  0  0  0
 15 16  1  0  0  0
 16 17  1  0  0  0
 16 41  1  0  0  0
 16 42  1  0  0  0
 17 18  1  0  0  0
 17 43  1  0  0  0
 17 44  1  0  0  0
 18 30  1  0  0  0
 18 19  1  0  0  0
 18 20  1  0  0  0
 19 45  1  0  0  0
 20 21  1  0  0  0
 20 46  1  0  0  0
 20 47  1  0  0  0
 21 31  1  0  0  0
 21 22  1  0  0  0
 22 23  2  0  0  0
 22 24  1  0  0  0
 24 25  1  0  0  0
 24 48  1  0  0  0
 25 49  1  0  0  0
 26 27  2  0  0  0
 26 50  1  0  0  0
 27 51  1  0  0  0
 28 29  2  0  0  0
 28 52  1  0  0  0
 29 53  1  0  0  0
M  END
$$$$
162
                    3D
 Schrodinger Suite 2021-2.
 45 47  0  0  1  0            999 V2000
   -3.8536   -0.4283   -0.0076 C   0  0  0  0  0  0
   -2.4533   -0.1924   -0.0160 O   0  0  0  0  0  0
   -2.0090    1.1149   -0.0139 C   0  0  0  0  0  0
   -2.8762    2.2374    0.0016 C   0  0  0  0  0  0
   -2.3553    3.5449    0.0037 C   0  0  0  0  0  0
   -0.9648    3.7493   -0.0099 C   0  0  0  0  0  0
   -0.0946    2.6446   -0.0255 C   0  0  0  0  0  0
   -0.6104    1.3297   -0.0274 C   0  0  0  0  0  0
    0.2463    0.2234   -0.0421 N   0  0  0  0  0  0
    1.9790    0.1936   -0.0247 S   0  0  0  0  0  0
    2.4125    0.7836   -1.3010 O   0  0  0  0  0  0
    2.3861    0.7739    1.2647 O   0  0  0  0  0  0
    2.3323   -1.5585   -0.0256 C   0  0  0  0  0  0
    2.3713   -2.2607    1.1940 C   0  0  0  0  0  0
    2.6426   -3.6428    1.1935 C   0  0  0  0  0  0
    2.8649   -4.3314   -0.0213 C   0  0  0  0  0  0
    3.1765   -5.8018   -0.0012 C   0  0  0  0  0  0
    3.7591   -6.2989    0.9632 O   0  0  0  0  0  0
    2.7168   -6.4934   -1.0619 N   0  0  0  0  0  0
    2.8499   -7.8818   -1.3408 C   0  0  0  0  0  0
    3.5054   -8.7417   -0.5213 N   0  0  0  0  0  0
    3.5889  -10.0453   -0.8590 C   0  0  0  0  0  0
    3.0243  -10.5731   -2.0337 C   0  0  0  0  0  0
    2.3419   -9.6946   -2.8929 C   0  0  0  0  0  0
    2.2519   -8.3315   -2.5458 C   0  0  0  0  0  0
    1.5898   -7.4716   -3.3779 O   0  0  0  0  0  0
    2.8285   -3.6104   -1.2396 C   0  0  0  0  0  0
    2.5573   -2.2282   -1.2439 C   0  0  0  0  0  0
   -4.0360   -1.5028   -0.0115 H   0  0  0  0  0  0
   -4.3226   -0.0184    0.8880 H   0  0  0  0  0  0
   -4.3343   -0.0097   -0.8928 H   0  0  0  0  0  0
   -3.9493    2.1230    0.0127 H   0  0  0  0  0  0
   -3.0248    4.3922    0.0158 H   0  0  0  0  0  0
   -0.5647    4.7526   -0.0084 H   0  0  0  0  0  0
    0.9706    2.8206   -0.0360 H   0  0  0  0  0  0
   -0.2152   -0.6747   -0.0485 H   0  0  0  0  0  0
    2.1952   -1.7469    2.1275 H   0  0  0  0  0  0
    2.6736   -4.1714    2.1355 H   0  0  0  0  0  0
    2.2227   -5.9604   -1.7625 H   0  0  0  0  0  0
    4.1222  -10.6859   -0.1723 H   0  0  0  0  0  0
    3.1129  -11.6234   -2.2689 H   0  0  0  0  0  0
    1.8948  -10.0627   -3.8048 H   0  0  0  0  0  0
    1.2376   -7.8972   -4.1450 H   0  0  0  0  0  0
    3.0119   -4.1067   -2.1816 H   0  0  0  0  0  0
    2.5268   -1.6897   -2.1797 H   0  0  0  0  0  0
  1  2  1  0  0  0
  1 29  1  0  0  0
  1 30  1  0  0  0
  1 31  1  0  0  0
  2  3  1  0  0  0
  3  8  1  0  0  0
  3  4  2  0  0  0
  4  5  1  0  0  0
  4 32  1  0  0  0
  5  6  2  0  0  0
  5 33  1  0  0  0
  6  7  1  0  0  0
  6 34  1  0  0  0
  7  8  2  0  0  0
  7 35  1  0  0  0
  8  9  1  0  0  0
  9 10  1  0  0  0
  9 36  1  0  0  0
 10 11  2  0  0  0
 10 12  2  0  0  0
 10 13  1  0  0  0
 13 28  1  0  0  0
 13 14  2  0  0  0
 14 15  1  0  0  0
 14 37  1  0  0  0
 15 16  2  0  0  0
 15 38  1  0  0  0
 16 17  1  0  0  0
 16 27  1  0  0  0
 17 18  2  0  0  0
 17 19  1  0  0  0
 19 20  1  0  0  0
 19 39  1  0  0  0
 20 25  1  0  0  0
 20 21  2  0  0  0
 21 22  1  0  0  0
 22 23  2  0  0  0
 22 40  1  0  0  0
 23 24  1  0  0  0
 23 41  1  0  0  0
 24 25  2  0  0  0
 24 42  1  0  0  0
 25 26  1  0  0  0
 26 43  1  0  0  0
 27 28  2  0  0  0
 27 44  1  0  0  0
 28 45  1  0  0  0
M  END
$$$$
163
                    3D
 Schrodinger Suite 2021-2.
 44 47  0  0  1  0            999 V2000
   -1.9717   -1.6658   -0.1275 C   0  0  0  0  0  0
   -0.5464   -1.3846   -0.0585 N   0  0  0  0  0  0
    0.0019   -0.1714   -0.2402 C   0  0  0  0  0  0
   -0.6636    0.8341   -0.4912 O   0  0  0  0  0  0
    1.5044   -0.1033   -0.1417 C   0  0  0  0  0  0
    2.1851    1.0829   -0.4891 C   0  0  0  0  0  0
    3.5867    1.1172   -0.3813 C   0  0  0  0  0  0
    4.2725   -0.0347    0.0671 C   0  0  0  0  0  0
    5.6814   -0.0720    0.2043 C   0  0  0  0  0  0
    6.4811    1.0304   -0.0995 N   0  0  0  0  0  0
    6.3427   -1.1623    0.6352 N   0  0  0  0  0  0
    5.6254   -2.2598    0.9425 C   0  0  0  0  0  0
    4.2209   -2.3446    0.8383 C   0  0  0  0  0  0
    3.5399   -3.6042    1.1947 C   0  0  0  0  0  0
    3.7087   -4.1677    2.4834 C   0  0  0  0  0  0
    3.0526   -5.3606    2.8511 C   0  0  0  0  0  0
    2.2220   -5.9937    1.9070 C   0  0  0  0  0  0
    2.0512   -5.4540    0.6214 C   0  0  0  0  0  0
    2.7101   -4.2665    0.2586 C   0  0  0  0  0  0
    1.1175   -6.2227   -0.3076 C   0  0  0  0  0  0
    0.5193   -7.6225    0.7399 S   0  0  0  0  0  0
   -0.8847   -7.4271    1.1329 O   0  0  0  0  0  0
    1.0444   -8.9095    0.2595 O   0  0  0  0  0  0
    1.4806   -7.1576    2.0768 N   0  0  0  0  0  0
    1.3434   -7.7571    3.3944 C   0  0  0  0  0  0
    3.5166   -1.1949    0.3934 C   0  0  0  0  0  0
    2.1663   -1.2012    0.2913 N   0  0  0  0  0  0
   -2.1519   -2.7209    0.0791 H   0  0  0  0  0  0
   -2.5208   -1.0758    0.6075 H   0  0  0  0  0  0
   -2.3642   -1.4400   -1.1198 H   0  0  0  0  0  0
    0.0722   -2.1575    0.1430 H   0  0  0  0  0  0
    1.6504    1.9571   -0.8320 H   0  0  0  0  0  0
    4.1146    2.0225   -0.6421 H   0  0  0  0  0  0
    6.0854    1.8971   -0.4331 H   0  0  0  0  0  0
    7.4858    0.9908   -0.0048 H   0  0  0  0  0  0
    6.1990   -3.1112    1.2789 H   0  0  0  0  0  0
    4.3413   -3.6734    3.2061 H   0  0  0  0  0  0
    3.1891   -5.7692    3.8412 H   0  0  0  0  0  0
    2.5717   -3.8575   -0.7319 H   0  0  0  0  0  0
    0.2727   -5.6131   -0.6281 H   0  0  0  0  0  0
    1.6499   -6.6128   -1.1750 H   0  0  0  0  0  0
    0.9224   -7.0420    4.1016 H   0  0  0  0  0  0
    0.6811   -8.6222    3.3539 H   0  0  0  0  0  0
    2.3115   -8.0919    3.7674 H   0  0  0  0  0  0
  1  2  1  0  0  0
  1 28  1  0  0  0
  1 29  1  0  0  0
  1 30  1  0  0  0
  2  3  1  0  0  0
  2 31  1  0  0  0
  3  4  2  0  0  0
  3  5  1  0  0  0
  5 27  1  0  0  0
  5  6  2  0  0  0
  6  7  1  0  0  0
  6 32  1  0  0  0
  7  8  2  0  0  0
  7 33  1  0  0  0
  8 26  1  0  0  0
  8  9  1  0  0  0
  9 10  1  0  0  0
  9 11  2  0  0  0
 10 34  1  0  0  0
 10 35  1  0  0  0
 11 12  1  0  0  0
 12 13  2  0  0  0
 12 36  1  0  0  0
 13 14  1  0  0  0
 13 26  1  0  0  0
 14 19  1  0  0  0
 14 15  2  0  0  0
 15 16  1  0  0  0
 15 37  1  0  0  0
 16 17  2  0  0  0
 16 38  1  0  0  0
 17 24  1  0  0  0
 17 18  1  0  0  0
 18 19  2  0  0  0
 18 20  1  0  0  0
 19 39  1  0  0  0
 20 21  1  0  0  0
 20 40  1  0  0  0
 20 41  1  0  0  0
 21 22  2  0  0  0
 21 23  2  0  0  0
 21 24  1  0  0  0
 24 25  1  0  0  0
 25 42  1  0  0  0
 25 43  1  0  0  0
 25 44  1  0  0  0
 26 27  2  0  0  0
M  END
$$$$
164
                    3D
 Schrodinger Suite 2021-2.
 47 49  0  0  1  0            999 V2000
   -4.4009    3.7416    3.1357 C   0  0  0  0  0  0
   -4.0294    4.3911    1.4568 S   0  0  0  0  0  0
   -5.2041    4.1449    0.6062 O   0  0  0  0  0  0
   -3.4815    5.7499    1.5868 O   0  0  0  0  0  0
   -2.7457    3.3479    0.9386 N   0  0  2  0  0  0
   -1.3797    3.5795    1.4423 C   0  0  0  0  0  0
   -0.5737    2.2732    1.5072 C   0  0  0  0  0  0
   -0.5799    1.5504    0.1508 C   0  0  0  0  0  0
    0.1946    0.3155    0.1911 N   0  0  0  0  0  0
    1.5760    0.2438    0.1454 C   0  0  0  0  0  0
    2.0885   -0.9865    0.1954 N   0  0  0  0  0  0
    3.4338   -1.0927    0.1444 C   0  0  0  0  0  0
    4.2760    0.0384    0.0383 C   0  0  0  0  0  0
    5.7570   -0.1175   -0.0082 C   0  0  0  0  0  0
    6.4908    0.5461    0.7248 O   0  0  0  0  0  0
    6.3119   -1.1074   -0.9754 C   0  0  0  0  0  0
    7.5614   -1.7137   -0.7107 C   0  0  0  0  0  0
    8.1126   -2.6401   -1.6173 C   0  0  0  0  0  0
    7.4234   -2.9653   -2.8004 C   0  0  0  0  0  0
    6.1835   -2.3605   -3.0783 C   0  0  0  0  0  0
    5.6314   -1.4337   -2.1731 C   0  0  0  0  0  0
    3.6163    1.2944    0.0031 C   0  0  0  0  0  0
    4.3004    2.5065   -0.1007 N   0  0  0  0  0  0
    2.2699    1.3834    0.0513 N   0  0  0  0  0  0
   -2.0369    1.2678   -0.2380 C   0  0  0  0  0  0
   -2.8666    2.5611   -0.3049 C   0  0  0  0  0  0
   -5.2191    4.3139    3.5718 H   0  0  0  0  0  0
   -4.6898    2.6933    3.0642 H   0  0  0  0  0  0
   -3.5187    3.8332    3.7684 H   0  0  0  0  0  0
   -0.8829    4.2990    0.7904 H   0  0  0  0  0  0
   -1.4258    4.0315    2.4333 H   0  0  0  0  0  0
    0.4465    2.4979    1.8191 H   0  0  0  0  0  0
   -0.9939    1.6236    2.2765 H   0  0  0  0  0  0
   -0.1431    2.2031   -0.6063 H   0  0  0  0  0  0
   -0.3078   -0.5578    0.2584 H   0  0  0  0  0  0
    3.8376   -2.0938    0.1906 H   0  0  0  0  0  0
    8.1069   -1.4763    0.1915 H   0  0  0  0  0  0
    9.0666   -3.0998   -1.4050 H   0  0  0  0  0  0
    7.8473   -3.6741   -3.4965 H   0  0  0  0  0  0
    5.6565   -2.6038   -3.9893 H   0  0  0  0  0  0
    4.6851   -0.9728   -2.4166 H   0  0  0  0  0  0
    5.3097    2.5437   -0.1016 H   0  0  0  0  0  0
    3.8084    3.3884   -0.0982 H   0  0  0  0  0  0
   -2.0765    0.7618   -1.2034 H   0  0  0  0  0  0
   -2.4881    0.5867    0.4852 H   0  0  0  0  0  0
   -3.9093    2.3026   -0.4857 H   0  0  0  0  0  0
   -2.5422    3.1786   -1.1432 H   0  0  0  0  0  0
  1  2  1  0  0  0
  1 27  1  0  0  0
  1 28  1  0  0  0
  1 29  1  0  0  0
  2  3  2  0  0  0
  2  4  2  0  0  0
  2  5  1  0  0  0
  5 26  1  0  0  0
  5  6  1  0  0  0
  6  7  1  0  0  0
  6 30  1  0  0  0
  6 31  1  0  0  0
  7  8  1  0  0  0
  7 32  1  0  0  0
  7 33  1  0  0  0
  8  9  1  0  0  0
  8 25  1  0  0  0
  8 34  1  0  0  0
  9 10  1  0  0  0
  9 35  1  0  0  0
 10 24  1  0  0  0
 10 11  2  0  0  0
 11 12  1  0  0  0
 12 13  2  0  0  0
 12 36  1  0  0  0
 13 14  1  0  0  0
 13 22  1  0  0  0
 14 15  2  0  0  0
 14 16  1  0  0  0
 16 21  1  0  0  0
 16 17  2  0  0  0
 17 18  1  0  0  0
 17 37  1  0  0  0
 18 19  2  0  0  0
 18 38  1  0  0  0
 19 20  1  0  0  0
 19 39  1  0  0  0
 20 21  2  0  0  0
 20 40  1  0  0  0
 21 41  1  0  0  0
 22 23  1  0  0  0
 22 24  2  0  0  0
 23 42  1  0  0  0
 23 43  1  0  0  0
 25 26  1  0  0  0
 25 44  1  0  0  0
 25 45  1  0  0  0
 26 46  1  0  0  0
 26 47  1  0  0  0
M  END
$$$$
165
                    3D
 Schrodinger Suite 2021-2.
 55 57  0  0  1  0            999 V2000
   -8.5793    2.5266    2.6173 C   0  0  0  0  0  0
   -7.5733    1.5195    3.1821 C   0  0  0  0  0  0
   -6.2216    1.8473    2.7505 N   0  0  0  0  0  0
   -5.1215    1.1654    3.1073 C   0  0  0  0  0  0
   -5.1710    0.1718    3.8318 O   0  0  0  0  0  0
   -3.8358    1.6353    2.5397 C   0  0  0  0  0  0
   -3.6236    2.9893    2.3180 C   0  0  0  0  0  0
   -2.3519    3.1786    1.8220 N   0  0  0  0  0  0
   -1.7992    4.3425    1.4883 N   0  0  0  0  0  0
   -0.5312    4.1661    1.0344 C   0  0  0  0  0  0
    0.1606    3.0012    0.9060 N   0  0  0  0  0  0
   -0.4672    1.8537    1.2766 C   0  0  0  0  0  0
    0.1935    0.6219    1.1459 N   0  0  0  0  0  0
    1.5280    0.3531    0.7984 C   0  0  0  0  0  0
    2.5880    1.1951    1.2090 C   0  0  0  0  0  0
    3.9277    0.8934    0.8808 C   0  0  0  0  0  0
    5.0314    1.8167    1.3125 C   0  0  0  0  0  0
    4.8322    3.0251    1.4401 O   0  0  0  0  0  0
    6.2035    1.2232    1.5932 N   0  0  0  0  0  0
    7.4095    1.9008    2.0593 C   0  0  0  0  0  0
    8.2035    2.4613    0.8691 C   0  0  0  0  0  0
    8.2514    0.9252    2.8925 C   0  0  0  0  0  0
    4.2044   -0.2635    0.1195 C   0  0  0  0  0  0
    3.1596   -1.1164   -0.2792 C   0  0  0  0  0  0
    1.8241   -0.8200    0.0621 C   0  0  0  0  0  0
    0.7200   -1.7661   -0.3808 C   0  0  0  0  0  0
   -1.8032    1.9250    1.7584 C   0  0  0  0  0  0
   -2.6583    0.8719    2.1920 C   0  0  0  0  0  0
   -2.4142   -0.6165    2.2666 C   0  0  0  0  0  0
   -9.5925    2.2815    2.9370 H   0  0  0  0  0  0
   -8.3592    3.5383    2.9591 H   0  0  0  0  0  0
   -8.5663    2.5290    1.5269 H   0  0  0  0  0  0
   -7.6197    1.5204    4.2720 H   0  0  0  0  0  0
   -7.8275    0.5126    2.8480 H   0  0  0  0  0  0
   -6.1131    2.6406    2.1356 H   0  0  0  0  0  0
   -4.2519    3.8560    2.4660 H   0  0  0  0  0  0
   -0.0065    5.0617    0.7367 H   0  0  0  0  0  0
   -0.4081   -0.1868    1.2028 H   0  0  0  0  0  0
    2.3807    2.0721    1.8041 H   0  0  0  0  0  0
    6.2612    0.2219    1.4773 H   0  0  0  0  0  0
    7.1244    2.7307    2.7083 H   0  0  0  0  0  0
    9.1025    2.9774    1.2072 H   0  0  0  0  0  0
    8.5118    1.6671    0.1884 H   0  0  0  0  0  0
    7.6108    3.1774    0.2990 H   0  0  0  0  0  0
    9.1540    1.4081    3.2679 H   0  0  0  0  0  0
    7.6914    0.5603    3.7543 H   0  0  0  0  0  0
    8.5577    0.0603    2.3029 H   0  0  0  0  0  0
    5.2173   -0.5111   -0.1634 H   0  0  0  0  0  0
    3.3903   -2.0027   -0.8519 H   0  0  0  0  0  0
    1.1170   -2.5991   -0.9615 H   0  0  0  0  0  0
    0.2007   -2.1771    0.4854 H   0  0  0  0  0  0
   -0.0058   -1.2403   -1.0018 H   0  0  0  0  0  0
   -2.1182   -1.0002    1.2903 H   0  0  0  0  0  0
   -1.6193   -0.8323    2.9806 H   0  0  0  0  0  0
   -3.3080   -1.1551    2.5779 H   0  0  0  0  0  0
  1  2  1  0  0  0
  1 30  1  0  0  0
  1 31  1  0  0  0
  1 32  1  0  0  0
  2  3  1  0  0  0
  2 33  1  0  0  0
  2 34  1  0  0  0
  3  4  1  0  0  0
  3 35  1  0  0  0
  4  5  2  0  0  0
  4  6  1  0  0  0
  6 28  1  0  0  0
  6  7  2  0  0  0
  7  8  1  0  0  0
  7 36  1  0  0  0
  8 27  1  0  0  0
  8  9  1  0  0  0
  9 10  2  0  0  0
 10 11  1  0  0  0
 10 37  1  0  0  0
 11 12  2  0  0  0
 12 13  1  0  0  0
 12 27  1  0  0  0
 13 14  1  0  0  0
 13 38  1  0  0  0
 14 25  1  0  0  0
 14 15  2  0  0  0
 15 16  1  0  0  0
 15 39  1  0  0  0
 16 17  1  0  0  0
 16 23  2  0  0  0
 17 18  2  0  0  0
 17 19  1  0  0  0
 19 20  1  0  0  0
 19 40  1  0  0  0
 20 21  1  0  0  0
 20 22  1  0  0  0
 20 41  1  0  0  0
 21 42  1  0  0  0
 21 43  1  0  0  0
 21 44  1  0  0  0
 22 45  1  0  0  0
 22 46  1  0  0  0
 22 47  1  0  0  0
 23 24  1  0  0  0
 23 48  1  0  0  0
 24 25  2  0  0  0
 24 49  1  0  0  0
 25 26  1  0  0  0
 26 50  1  0  0  0
 26 51  1  0  0  0
 26 52  1  0  0  0
 27 28  2  0  0  0
 28 29  1  0  0  0
 29 53  1  0  0  0
 29 54  1  0  0  0
 29 55  1  0  0  0
M  END
$$$$
166
                    3D
 Schrodinger Suite 2021-2.
 50 51  0  0  1  0            999 V2000
   -0.4239    2.3416    1.2729 C   0  0  0  0  0  0
   -0.7131    1.4295    0.0688 C   0  0  0  0  0  0
   -2.2233    1.1779   -0.0597 C   0  0  0  0  0  0
    0.0565    0.0947    0.1384 C   0  0  0  0  0  0
    1.5830    0.2425    0.0338 C   0  0  0  0  0  0
    2.2216   -1.0662    0.0253 N   0  0  0  0  0  0
    3.5448   -1.2624   -0.0551 C   0  0  0  0  0  0
    4.3603   -0.3406   -0.1293 O   0  0  0  0  0  0
    3.8402   -2.5768   -0.0442 N   0  0  0  0  0  0
    5.0606   -3.1462   -0.1115 C   0  0  0  0  0  0
    6.1244   -2.5261   -0.1941 O   0  0  0  0  0  0
    5.0556   -4.6827   -0.0807 C   0  0  0  0  0  0
    6.4028   -5.2672   -0.0378 N   0  0  0  0  0  0
    7.1228   -5.5966   -1.1255 C   0  0  0  0  0  0
    6.7703   -5.4815   -2.2983 O   0  0  0  0  0  0
    8.3055   -6.0748   -0.7185 N   0  0  0  0  0  0
    8.4456   -6.0782    0.7272 C   0  0  0  0  0  0
    9.5917   -5.1479    1.1873 C   0  0  0  0  0  0
   10.9724   -5.7197    0.8212 C   0  0  0  0  0  0
   11.1534   -7.1392    1.3832 C   0  0  0  0  0  0
   10.0278   -8.0757    0.9146 C   0  0  0  0  0  0
    8.6428   -7.5101    1.2767 C   0  0  0  0  0  0
    7.0815   -5.5119    1.0915 C   0  0  0  0  0  0
    6.6994   -5.3160    2.2455 O   0  0  0  0  0  0
   -0.6751    1.8492    2.2127 H   0  0  0  0  0  0
    0.6258    2.6312    1.3170 H   0  0  0  0  0  0
   -1.0066    3.2614    1.2153 H   0  0  0  0  0  0
   -0.3959    1.9553   -0.8328 H   0  0  0  0  0  0
   -2.6119    0.6500    0.8118 H   0  0  0  0  0  0
   -2.7729    2.1151   -0.1532 H   0  0  0  0  0  0
   -2.4501    0.5769   -0.9407 H   0  0  0  0  0  0
   -0.2000   -0.4287    1.0606 H   0  0  0  0  0  0
   -0.2814   -0.5475   -0.6763 H   0  0  0  0  0  0
    1.8469    0.7789   -0.8790 H   0  0  0  0  0  0
    1.9728    0.8182    0.8738 H   0  0  0  0  0  0
    1.6168   -1.8724    0.0837 H   0  0  0  0  0  0
    3.0572   -3.2100    0.0211 H   0  0  0  0  0  0
    4.4794   -5.0175    0.7836 H   0  0  0  0  0  0
    4.5164   -5.0480   -0.9563 H   0  0  0  0  0  0
    9.0370   -6.3892   -1.3395 H   0  0  0  0  0  0
    9.4777   -4.1541    0.7512 H   0  0  0  0  0  0
    9.5423   -5.0113    2.2688 H   0  0  0  0  0  0
   11.0904   -5.7363   -0.2629 H   0  0  0  0  0  0
   11.7565   -5.0669    1.2053 H   0  0  0  0  0  0
   12.1211   -7.5387    1.0786 H   0  0  0  0  0  0
   11.1649   -7.1005    2.4733 H   0  0  0  0  0  0
   10.0976   -8.2214   -0.1641 H   0  0  0  0  0  0
   10.1544   -9.0601    1.3661 H   0  0  0  0  0  0
    8.5386   -7.5039    2.3629 H   0  0  0  0  0  0
    7.8646   -8.1762    0.9010 H   0  0  0  0  0  0
  1  2  1  0  0  0
  1 25  1  0  0  0
  1 26  1  0  0  0
  1 27  1  0  0  0
  2  3  1  0  0  0
  2  4  1  0  0  0
  2 28  1  0  0  0
  3 29  1  0  0  0
  3 30  1  0  0  0
  3 31  1  0  0  0
  4  5  1  0  0  0
  4 32  1  0  0  0
  4 33  1  0  0  0
  5  6  1  0  0  0
  5 34  1  0  0  0
  5 35  1  0  0  0
  6  7  1  0  0  0
  6 36  1  0  0  0
  7  8  2  0  0  0
  7  9  1  0  0  0
  9 10  1  0  0  0
  9 37  1  0  0  0
 10 11  2  0  0  0
 10 12  1  0  0  0
 12 13  1  0  0  0
 12 38  1  0  0  0
 12 39  1  0  0  0
 13 23  1  0  0  0
 13 14  1  0  0  0
 14 15  2  0  0  0
 14 16  1  0  0  0
 16 17  1  0  0  0
 16 40  1  0  0  0
 17 22  1  0  0  0
 17 18  1  0  0  0
 17 23  1  0  0  0
 18 19  1  0  0  0
 18 41  1  0  0  0
 18 42  1  0  0  0
 19 20  1  0  0  0
 19 43  1  0  0  0
 19 44  1  0  0  0
 20 21  1  0  0  0
 20 45  1  0  0  0
 20 46  1  0  0  0
 21 22  1  0  0  0
 21 47  1  0  0  0
 21 48  1  0  0  0
 22 49  1  0  0  0
 22 50  1  0  0  0
 23 24  2  0  0  0
M  END
$$$$
167
                    3D
 Schrodinger Suite 2021-2.
 43 47  0  0  1  0            999 V2000
   -2.7051    1.7255   -0.9804 N   0  0  0  0  0  0
   -1.8558    0.7516   -0.4831 C   0  0  0  0  0  0
   -2.1256   -0.4851   -0.0719 N   0  0  0  0  0  0
   -0.9080   -1.0021    0.3185 N   0  0  0  0  0  0
   -0.0021   -0.0357    0.1110 C   0  0  0  0  0  0
    1.4384   -0.0681    0.3646 C   0  0  0  0  0  0
    2.0363   -1.2175    0.9237 C   0  0  0  0  0  0
    3.4207   -1.2436    1.1689 C   0  0  0  0  0  0
    4.2026   -0.1168    0.8580 C   0  0  0  0  0  0
    5.5529    0.1300    0.9864 N   0  0  0  0  0  0
    5.8612    1.4004    0.5391 C   0  0  0  0  0  0
    4.7160    2.0265    0.1115 C   0  0  0  0  0  0
    4.5584    3.3808   -0.4432 C   0  0  0  0  0  0
    5.6784    4.1358   -0.8603 C   0  0  0  0  0  0
    5.5543    5.3825   -1.3656 N   0  0  0  0  0  0
    4.3020    5.8815   -1.4573 C   0  0  0  0  0  0
    3.1663    5.1417   -1.0468 C   0  0  0  0  0  0
    1.8601    5.6592   -1.1414 N   0  0  0  0  0  0
    1.5677    6.8878   -1.8627 C   0  0  0  0  0  0
    0.0416    6.9854   -1.8518 C   0  0  0  0  0  0
   -0.3917    5.5195   -1.8957 C   0  0  0  0  0  0
   -1.6133    5.3332   -1.3963 F   0  0  0  0  0  0
   -0.3611    5.0855   -3.1567 F   0  0  0  0  0  0
    0.6878    4.7922   -1.0863 C   0  0  0  0  0  0
    3.3123    3.8980   -0.5328 N   0  0  0  0  0  0
    3.6414    1.0692    0.2969 C   0  0  0  0  0  0
    2.2437    1.0518    0.0566 C   0  0  0  0  0  0
   -0.5515    1.1029   -0.3984 O   0  0  0  0  0  0
    6.2436   -0.5099    1.3520 H   0  0  0  0  0  0
   -3.6957    1.5579   -1.0817 H   0  0  0  0  0  0
   -2.3603    2.6318   -1.2620 H   0  0  0  0  0  0
    1.4391   -2.0843    1.1667 H   0  0  0  0  0  0
    3.8797   -2.1239    1.5939 H   0  0  0  0  0  0
    6.8795    1.7596    0.5678 H   0  0  0  0  0  0
    6.6822    3.7433   -0.7940 H   0  0  0  0  0  0
    4.2207    6.8785   -1.8637 H   0  0  0  0  0  0
    2.0289    7.7551   -1.3893 H   0  0  0  0  0  0
    1.9409    6.8081   -2.8847 H   0  0  0  0  0  0
   -0.2870    7.4400   -0.9159 H   0  0  0  0  0  0
   -0.3574    7.5806   -2.6735 H   0  0  0  0  0  0
    0.8754    3.7962   -1.4886 H   0  0  0  0  0  0
    0.3872    4.6874   -0.0433 H   0  0  0  0  0  0
    1.7780    1.9220   -0.3750 H   0  0  0  0  0  0
  1  2  1  0  0  0
  1 30  1  0  0  0
  1 31  1  0  0  0
  2 28  1  0  0  0
  2  3  2  0  0  0
  3  4  1  0  0  0
  4  5  2  0  0  0
  5  6  1  0  0  0
  5 28  1  0  0  0
  6 27  1  0  0  0
  6  7  2  0  0  0
  7  8  1  0  0  0
  7 32  1  0  0  0
  8  9  2  0  0  0
  8 33  1  0  0  0
  9 26  1  0  0  0
  9 10  1  0  0  0
 10 29  1  0  0  0
 10 11  1  0  0  0
 11 12  2  0  0  0
 11 34  1  0  0  0
 12 13  1  0  0  0
 12 26  1  0  0  0
 13 25  1  0  0  0
 13 14  2  0  0  0
 14 15  1  0  0  0
 14 35  1  0  0  0
 15 16  2  0  0  0
 16 17  1  0  0  0
 16 36  1  0  0  0
 17 18  1  0  0  0
 17 25  2  0  0  0
 18 24  1  0  0  0
 18 19  1  0  0  0
 19 20  1  0  0  0
 19 37  1  0  0  0
 19 38  1  0  0  0
 20 21  1  0  0  0
 20 39  1  0  0  0
 20 40  1  0  0  0
 21 22  1  0  0  0
 21 23  1  0  0  0
 21 24  1  0  0  0
 24 41  1  0  0  0
 24 42  1  0  0  0
 26 27  2  0  0  0
 27 43  1  0  0  0
M  END
$$$$
168
                    3D
 Schrodinger Suite 2021-2.
 44 47  0  0  1  0            999 V2000
   -5.2969   -0.5493   -0.7100 C   0  0  0  0  0  0
   -4.5072    0.0712    0.8300 S   0  0  0  0  0  0
   -4.9979    1.4360    1.0766 O   0  0  0  0  0  0
   -4.6637   -0.9579    1.8696 O   0  0  0  0  0  0
   -2.7743    0.1713    0.4018 C   0  0  0  0  0  0
   -1.9419   -0.9475    0.5992 C   0  0  0  0  0  0
   -0.5871   -0.8818    0.2221 C   0  0  0  0  0  0
   -0.0682    0.2902   -0.3747 C   0  0  0  0  0  0
    1.3770    0.3624   -0.7710 C   0  0  0  0  0  0
    2.0303    1.3884   -0.5911 O   0  0  0  0  0  0
    2.0092   -0.7561   -1.4418 N   0  0  0  0  0  0
    1.3926   -1.6119   -2.3821 C   0  0  0  0  0  0
    0.0778   -1.6050   -2.9091 C   0  0  0  0  0  0
   -0.3306   -2.5670   -3.8507 C   0  0  0  0  0  0
   -1.6093   -2.5398   -4.3299 O   0  0  0  0  0  0
    0.5808   -3.5446   -4.2923 C   0  0  0  0  0  0
    0.2029   -4.4890   -5.2035 O   0  0  0  0  0  0
    1.8970   -3.5416   -3.7970 C   0  0  0  0  0  0
    2.3223   -2.5807   -2.8507 C   0  0  0  0  0  0
    3.5618   -2.3100   -2.2011 C   0  0  0  0  0  0
    4.8397   -2.9081   -2.2722 C   0  0  0  0  0  0
    5.9021   -2.4471   -1.4806 C   0  0  0  0  0  0
    5.6938   -1.3868   -0.5852 C   0  0  0  0  0  0
    6.7290   -0.9649    0.2010 O   0  0  0  0  0  0
    4.4263   -0.7725   -0.4927 C   0  0  0  0  0  0
    4.2723    0.2152    0.4368 O   0  0  0  0  0  0
    3.3507   -1.2045   -1.3211 C   0  0  0  0  0  0
   -0.9099    1.4097   -0.5580 C   0  0  0  0  0  0
   -2.2657    1.3481   -0.1822 C   0  0  0  0  0  0
   -6.3703   -0.6509   -0.5512 H   0  0  0  0  0  0
   -5.1153    0.1547   -1.5218 H   0  0  0  0  0  0
   -4.8756   -1.5203   -0.9695 H   0  0  0  0  0  0
   -2.3345   -1.8540    1.0357 H   0  0  0  0  0  0
    0.0485   -1.7409    0.3824 H   0  0  0  0  0  0
   -0.6361   -0.8567   -2.6044 H   0  0  0  0  0  0
   -2.1268   -1.8374   -3.9678 H   0  0  0  0  0  0
    0.8994   -5.0860   -5.4287 H   0  0  0  0  0  0
    2.6012   -4.2822   -4.1470 H   0  0  0  0  0  0
    5.0004   -3.7382   -2.9441 H   0  0  0  0  0  0
    6.8702   -2.9209   -1.5508 H   0  0  0  0  0  0
    7.5284   -1.4459    0.0503 H   0  0  0  0  0  0
    5.0715    0.3922    0.9096 H   0  0  0  0  0  0
   -0.5240    2.3161   -1.0020 H   0  0  0  0  0  0
   -2.9071    2.2016   -0.3452 H   0  0  0  0  0  0
  1  2  1  0  0  0
  1 30  1  0  0  0
  1 31  1  0  0  0
  1 32  1  0  0  0
  2  3  2  0  0  0
  2  4  2  0  0  0
  2  5  1  0  0  0
  5 29  1  0  0  0
  5  6  2  0  0  0
  6  7  1  0  0  0
  6 33  1  0  0  0
  7  8  2  0  0  0
  7 34  1  0  0  0
  8  9  1  0  0  0
  8 28  1  0  0  0
  9 10  2  0  0  0
  9 11  1  0  0  0
 11 27  1  0  0  0
 11 12  1  0  0  0
 12 19  2  0  0  0
 12 13  1  0  0  0
 13 14  2  0  0  0
 13 35  1  0  0  0
 14 15  1  0  0  0
 14 16  1  0  0  0
 15 36  1  0  0  0
 16 17  1  0  0  0
 16 18  2  0  0  0
 17 37  1  0  0  0
 18 19  1  0  0  0
 18 38  1  0  0  0
 19 20  1  0  0  0
 20 27  2  0  0  0
 20 21  1  0  0  0
 21 22  2  0  0  0
 21 39  1  0  0  0
 22 23  1  0  0  0
 22 40  1  0  0  0
 23 24  1  0  0  0
 23 25  2  0  0  0
 24 41  1  0  0  0
 25 26  1  0  0  0
 25 27  1  0  0  0
 26 42  1  0  0  0
 28 29  2  0  0  0
 28 43  1  0  0  0
 29 44  1  0  0  0
M  END
$$$$
169
                    3D
 Schrodinger Suite 2021-2.
 44 47  0  0  1  0            999 V2000
   -3.4095    2.9584    1.2545 O   0  0  0  0  0  0
   -2.1572    2.3013    1.2106 C   0  0  2  0  0  0
   -0.9748    3.2548    1.1187 C   0  0  0  0  0  0
    0.0774    2.3987    0.7016 O   0  0  0  0  0  0
   -0.4328    1.4275   -0.2130 C   0  0  1  0  0  0
    0.2214    0.0666    0.0755 C   0  0  0  0  0  0
    1.6687    0.1342   -0.0045 N   0  0  0  0  0  0
    2.4256    0.1912   -1.1531 C   0  0  0  0  0  0
    3.7167    0.2489   -0.9674 N   0  0  0  0  0  0
    3.8574    0.2279    0.4144 C   0  0  0  0  0  0
    4.9733    0.2579    1.2897 C   0  0  0  0  0  0
    6.2353    0.3273    0.8115 N   0  0  0  0  0  0
    7.3695    0.0132    1.6749 C   0  0  0  0  0  0
    7.4315   -1.4270    2.1603 C   0  0  0  0  0  0
    7.7483   -1.7017    3.5072 C   0  0  0  0  0  0
    7.8092   -3.0328    3.9639 C   0  0  0  0  0  0
    7.5556   -4.0953    3.0751 C   0  0  0  0  0  0
    7.2431   -3.8261    1.7287 C   0  0  0  0  0  0
    6.9004   -5.2600    0.5257 Br  0  0  0  0  0  0
    7.1839   -2.4955    1.2713 C   0  0  0  0  0  0
    4.7311    0.2221    2.6267 N   0  0  0  0  0  0
    3.4741    0.1559    3.0773 C   0  0  0  0  0  0
    2.3368    0.1185    2.3785 N   0  0  0  0  0  0
    2.5797    0.1563    1.0366 C   0  0  0  0  0  0
   -1.9620    1.4190   -0.0176 C   0  0  2  0  0  0
   -2.5755    1.9711   -1.1698 O   0  0  0  0  0  0
   -2.0482    1.6932    2.1097 H   0  0  0  0  0  0
   -0.1735    1.7455   -1.2246 H   0  0  0  0  0  0
   -2.3646    0.4181    0.1440 H   0  0  0  0  0  0
   -4.0889    2.3057    1.3263 H   0  0  0  0  0  0
   -1.1400    4.0221    0.3602 H   0  0  0  0  0  0
   -0.7468    3.7441    2.0657 H   0  0  0  0  0  0
   -0.0597   -0.2865    1.0682 H   0  0  0  0  0  0
   -0.1289   -0.6814   -0.6366 H   0  0  0  0  0  0
    1.9856    0.1919   -2.1398 H   0  0  0  0  0  0
    6.4413    0.3860   -0.1754 H   0  0  0  0  0  0
    8.2832    0.2203    1.1176 H   0  0  0  0  0  0
    7.3727    0.6937    2.5274 H   0  0  0  0  0  0
    7.9427   -0.8923    4.1957 H   0  0  0  0  0  0
    8.0500   -3.2384    4.9965 H   0  0  0  0  0  0
    7.6017   -5.1157    3.4263 H   0  0  0  0  0  0
    6.9450   -2.2979    0.2365 H   0  0  0  0  0  0
    3.3643    0.1289    4.1513 H   0  0  0  0  0  0
   -3.4945    2.0971   -0.9887 H   0  0  0  0  0  0
  1  2  1  0  0  0
  1 30  1  0  0  0
  2 27  1  0  0  0
  2 25  1  0  0  0
  2  3  1  0  0  0
  3  4  1  0  0  0
  3 31  1  0  0  0
  3 32  1  0  0  0
  4  5  1  0  0  0
  5 28  1  0  0  0
  5  6  1  0  0  0
  5 25  1  0  0  0
  6  7  1  0  0  0
  6 33  1  0  0  0
  6 34  1  0  0  0
  7 24  1  0  0  0
  7  8  1  0  0  0
  8  9  2  0  0  0
  8 35  1  0  0  0
  9 10  1  0  0  0
 10 24  2  0  0  0
 10 11  1  0  0  0
 11 12  1  0  0  0
 11 21  2  0  0  0
 12 13  1  0  0  0
 12 36  1  0  0  0
 13 14  1  0  0  0
 13 37  1  0  0  0
 13 38  1  0  0  0
 14 20  1  0  0  0
 14 15  2  0  0  0
 15 16  1  0  0  0
 15 39  1  0  0  0
 16 17  2  0  0  0
 16 40  1  0  0  0
 17 18  1  0  0  0
 17 41  1  0  0  0
 18 19  1  0  0  0
 18 20  2  0  0  0
 20 42  1  0  0  0
 21 22  1  0  0  0
 22 23  2  0  0  0
 22 43  1  0  0  0
 23 24  1  0  0  0
 25 29  1  0  0  0
 25 26  1  0  0  0
 26 44  1  0  0  0
M  END
$$$$
170
                    3D
 Schrodinger Suite 2021-2.
 48 50  0  0  1  0            999 V2000
   -4.6747    0.5344    1.2239 C   0  0  0  0  0  0
   -3.1814    0.3319    1.4577 C   0  0  0  0  0  0
   -2.7918   -0.5143    2.2617 O   0  0  0  0  0  0
   -2.3566    1.1131    0.7444 N   0  0  0  0  0  0
   -0.9007    1.0774    0.8135 C   0  0  0  0  0  0
   -0.3246   -0.0812   -0.0202 C   0  0  0  0  0  0
    1.1317   -0.1062    0.0333 N   0  0  0  0  0  0
    1.9468    0.6755   -0.6942 C   0  0  0  0  0  0
    1.5400    1.5060   -1.5080 O   0  0  0  0  0  0
    3.4202    0.4379   -0.4812 C   0  0  0  0  0  0
    3.8058    0.3068    0.8071 N   0  0  0  0  0  0
    5.1126    0.1490    1.0718 C   0  0  0  0  0  0
    6.0966    0.0963    0.0707 C   0  0  0  0  0  0
    7.5036   -0.0223    0.4148 C   0  0  0  0  0  0
    8.4514   -0.0025   -0.5323 C   0  0  0  0  0  0
    8.1281    0.1018   -1.9523 C   0  0  0  0  0  0
    9.0243    0.1824   -2.7943 O   0  0  0  0  0  0
    6.7964    0.0996   -2.2870 N   0  0  0  0  0  0
    6.4899   -0.0442   -3.7285 C   0  0  0  0  0  0
    6.3393    1.2578   -4.5146 C   0  0  0  0  0  0
    6.4541    2.5295   -3.9045 C   0  0  0  0  0  0
    6.2998    3.7021   -4.6691 C   0  0  0  0  0  0
    6.0304    3.6158   -6.0480 C   0  0  0  0  0  0
    5.9148    2.3546   -6.6621 C   0  0  0  0  0  0
    6.0682    1.1820   -5.8974 C   0  0  0  0  0  0
    5.7330    0.1965   -1.2933 C   0  0  0  0  0  0
    4.3425    0.4070   -1.5680 C   0  0  0  0  0  0
    3.8662    0.5986   -2.8359 O   0  0  0  0  0  0
   -4.9286    1.5947    1.2445 H   0  0  0  0  0  0
   -4.9641    0.1275    0.2547 H   0  0  0  0  0  0
   -5.2587    0.0304    1.9948 H   0  0  0  0  0  0
   -2.7669    1.7803    0.1068 H   0  0  0  0  0  0
   -0.5272    2.0319    0.4414 H   0  0  0  0  0  0
   -0.5759    1.0012    1.8527 H   0  0  0  0  0  0
   -0.6886   -1.0361    0.3600 H   0  0  0  0  0  0
   -0.6594   -0.0122   -1.0568 H   0  0  0  0  0  0
    1.5566   -0.7628    0.6725 H   0  0  0  0  0  0
    5.3806    0.0742    2.1156 H   0  0  0  0  0  0
    7.7708   -0.1112    1.4579 H   0  0  0  0  0  0
    9.4879   -0.0808   -0.2378 H   0  0  0  0  0  0
    7.2557   -0.6343   -4.2357 H   0  0  0  0  0  0
    5.6106   -0.6706   -3.8680 H   0  0  0  0  0  0
    6.6574    2.6245   -2.8485 H   0  0  0  0  0  0
    6.3875    4.6690   -4.1960 H   0  0  0  0  0  0
    5.9124    4.5156   -6.6336 H   0  0  0  0  0  0
    5.7077    2.2861   -7.7197 H   0  0  0  0  0  0
    5.9757    0.2185   -6.3768 H   0  0  0  0  0  0
    2.9417    0.7967   -2.8606 H   0  0  0  0  0  0
  1  2  1  0  0  0
  1 29  1  0  0  0
  1 30  1  0  0  0
  1 31  1  0  0  0
  2  3  2  0  0  0
  2  4  1  0  0  0
  4  5  1  0  0  0
  4 32  1  0  0  0
  5  6  1  0  0  0
  5 33  1  0  0  0
  5 34  1  0  0  0
  6  7  1  0  0  0
  6 35  1  0  0  0
  6 36  1  0  0  0
  7  8  1  0  0  0
  7 37  1  0  0  0
  8  9  2  0  0  0
  8 10  1  0  0  0
 10 27  1  0  0  0
 10 11  2  0  0  0
 11 12  1  0  0  0
 12 13  2  0  0  0
 12 38  1  0  0  0
 13 26  1  0  0  0
 13 14  1  0  0  0
 14 15  2  0  0  0
 14 39  1  0  0  0
 15 16  1  0  0  0
 15 40  1  0  0  0
 16 17  2  0  0  0
 16 18  1  0  0  0
 18 19  1  0  0  0
 18 26  1  0  0  0
 19 20  1  0  0  0
 19 41  1  0  0  0
 19 42  1  0  0  0
 20 25  1  0  0  0
 20 21  2  0  0  0
 21 22  1  0  0  0
 21 43  1  0  0  0
 22 23  2  0  0  0
 22 44  1  0  0  0
 23 24  1  0  0  0
 23 45  1  0  0  0
 24 25  2  0  0  0
 24 46  1  0  0  0
 25 47  1  0  0  0
 26 27  2  0  0  0
 27 28  1  0  0  0
 28 48  1  0  0  0
M  END
$$$$
171
                    3D
 Schrodinger Suite 2021-2.
 50 52  0  0  1  0            999 V2000
   -5.1478   -3.5301   -0.2705 C   0  0  0  0  0  0
   -4.1919   -2.4324   -0.2798 N   0  0  0  0  0  0
   -2.8556   -2.5786   -0.2254 C   0  0  0  0  0  0
   -2.3639   -3.7076   -0.1639 O   0  0  0  0  0  0
   -2.1132   -1.2960   -0.2443 C   0  0  0  0  0  0
   -2.7255   -0.0923   -0.3939 C   0  0  0  0  0  0
   -1.9585    1.1434   -0.4098 C   0  0  0  0  0  0
   -2.5698    2.4699   -0.5386 C   0  0  0  0  0  0
   -1.9371    3.5270   -0.5683 O   0  0  0  0  0  0
   -3.9109    2.4439   -0.6203 N   0  0  0  0  0  0
   -4.7639    3.5830   -0.7313 C   0  0  0  0  0  0
   -6.1540    3.4750   -0.1417 C   0  0  0  0  0  0
   -5.9727    3.4719   -1.6346 C   0  0  0  0  0  0
   -0.6236    1.0429   -0.2874 C   0  0  0  0  0  0
    0.0328   -0.1907   -0.1384 N   0  0  0  0  0  0
    1.4949   -0.1346    0.0162 C   0  0  0  0  0  0
    1.9203   -0.0318    1.4717 C   0  0  0  0  0  0
    1.9568    1.2243    2.1119 C   0  0  0  0  0  0
    2.3292    1.3168    3.4662 C   0  0  0  0  0  0
    2.6643    0.1545    4.1869 C   0  0  0  0  0  0
    2.6320   -1.1070    3.5554 C   0  0  0  0  0  0
    2.9817   -2.3619    4.3400 C   0  0  1  0  0  0
    1.7356   -3.2014    4.6532 C   0  0  0  0  0  0
    3.9142   -3.1770    3.6601 O   0  0  0  0  0  0
    2.2594   -1.1935    2.1962 C   0  0  0  0  0  0
   -0.6348   -1.3847   -0.0962 C   0  0  0  0  0  0
   -0.0050   -2.4343    0.0602 O   0  0  0  0  0  0
    3.4472   -2.0675    5.2814 H   0  0  0  0  0  0
   -6.1634   -3.1382   -0.3225 H   0  0  0  0  0  0
   -4.9922   -4.1890   -1.1257 H   0  0  0  0  0  0
   -5.0555   -4.1171    0.6440 H   0  0  0  0  0  0
   -4.5685   -1.4970   -0.3265 H   0  0  0  0  0  0
   -3.7971   -0.0378   -0.5102 H   0  0  0  0  0  0
   -4.3643    1.5426   -0.5906 H   0  0  0  0  0  0
   -4.2984    4.5659   -0.6712 H   0  0  0  0  0  0
   -6.4372    2.5359    0.3304 H   0  0  0  0  0  0
   -6.5785    4.3693    0.3105 H   0  0  0  0  0  0
   -6.2734    4.3646   -2.1794 H   0  0  0  0  0  0
   -6.1321    2.5312   -2.1584 H   0  0  0  0  0  0
    0.0363    1.8994   -0.2800 H   0  0  0  0  0  0
    1.9767   -0.9990   -0.4445 H   0  0  0  0  0  0
    1.8997    0.7205   -0.5272 H   0  0  0  0  0  0
    1.6950    2.1197    1.5674 H   0  0  0  0  0  0
    2.3539    2.2800    3.9539 H   0  0  0  0  0  0
    2.9431    0.2362    5.2272 H   0  0  0  0  0  0
    1.0090   -2.6235    5.2249 H   0  0  0  0  0  0
    1.2440   -3.5437    3.7416 H   0  0  0  0  0  0
    1.9927   -4.0821    5.2426 H   0  0  0  0  0  0
    4.7134   -2.6857    3.5468 H   0  0  0  0  0  0
    2.2241   -2.1577    1.7101 H   0  0  0  0  0  0
  1  2  1  0  0  0
  1 29  1  0  0  0
  1 30  1  0  0  0
  1 31  1  0  0  0
  2  3  1  0  0  0
  2 32  1  0  0  0
  3  4  2  0  0  0
  3  5  1  0  0  0
  5 26  1  0  0  0
  5  6  2  0  0  0
  6  7  1  0  0  0
  6 33  1  0  0  0
  7  8  1  0  0  0
  7 14  2  0  0  0
  8  9  2  0  0  0
  8 10  1  0  0  0
 10 11  1  0  0  0
 10 34  1  0  0  0
 11 13  1  0  0  0
 11 12  1  0  0  0
 11 35  1  0  0  0
 12 13  1  0  0  0
 12 36  1  0  0  0
 12 37  1  0  0  0
 13 38  1  0  0  0
 13 39  1  0  0  0
 14 15  1  0  0  0
 14 40  1  0  0  0
 15 16  1  0  0  0
 15 26  1  0  0  0
 16 17  1  0  0  0
 16 41  1  0  0  0
 16 42  1  0  0  0
 17 25  1  0  0  0
 17 18  2  0  0  0
 18 19  1  0  0  0
 18 43  1  0  0  0
 19 20  2  0  0  0
 19 44  1  0  0  0
 20 21  1  0  0  0
 20 45  1  0  0  0
 21 22  1  0  0  0
 21 25  2  0  0  0
 22 28  1  0  0  0
 22 23  1  0  0  0
 22 24  1  0  0  0
 23 46  1  0  0  0
 23 47  1  0  0  0
 23 48  1  0  0  0
 24 49  1  0  0  0
 25 50  1  0  0  0
 26 27  2  0  0  0
M  END
$$$$
172
                    3D
 Schrodinger Suite 2021-2.
 54 56  0  0  1  0            999 V2000
   -7.2837   -0.6454   -1.3595 C   0  0  0  0  0  0
   -6.8230    0.8986   -0.5269 S   0  0  0  0  0  0
   -5.0564    0.9882   -0.4597 C   0  0  0  0  0  0
   -4.4557    2.1633    0.0314 C   0  0  0  0  0  0
   -3.0534    2.2693    0.0979 C   0  0  0  0  0  0
   -2.2329    1.1973   -0.3185 C   0  0  0  0  0  0
   -0.7376    1.3343   -0.2613 C   0  0  0  0  0  0
   -0.2079    2.4406   -0.3625 O   0  0  0  0  0  0
   -0.0651    0.1895   -0.0368 N   0  0  0  0  0  0
    1.3788   -0.0308    0.1271 C   0  0  0  0  0  0
    1.5329   -1.5635    0.3083 C   0  0  0  0  0  0
    1.7139   -2.0439    1.4278 O   0  0  0  0  0  0
    1.4240   -2.3203   -0.8031 N   0  0  0  0  0  0
    1.5234   -3.7782   -0.9640 C   0  0  2  0  0  0
    0.7050   -4.6211    0.0280 C   0  0  0  0  0  0
   -0.4651   -4.7602    0.3113 O   0  0  0  0  0  0
    1.8424   -5.2080    0.5265 N   0  0  0  0  0  0
    2.7593   -4.4187   -0.3119 C   0  0  1  0  0  0
    3.4753   -5.2348   -1.2322 O   0  0  0  0  0  0
    4.6137   -5.8447   -0.8545 C   0  0  0  0  0  0
    5.2306   -6.6695   -1.9764 C   0  0  0  0  0  0
    5.1370   -5.7780    0.2578 O   0  0  0  0  0  0
    2.1681    0.4702   -1.1242 C   0  0  0  0  0  0
    3.6949    0.3595   -0.9533 C   0  0  0  0  0  0
    4.1659    1.1331    0.2869 C   0  0  0  0  0  0
    3.4330    0.6604    1.5510 C   0  0  0  0  0  0
    1.9021    0.7422    1.3785 C   0  0  0  0  0  0
   -2.8413    0.0225   -0.8201 C   0  0  0  0  0  0
   -4.2445   -0.0842   -0.8865 C   0  0  0  0  0  0
    1.3974   -4.0892   -2.0020 H   0  0  0  0  0  0
    3.3925   -3.7256    0.2464 H   0  0  0  0  0  0
   -8.3674   -0.7052   -1.4581 H   0  0  0  0  0  0
   -6.8458   -0.6887   -2.3569 H   0  0  0  0  0  0
   -6.9448   -1.5078   -0.7852 H   0  0  0  0  0  0
   -5.0698    2.9901    0.3573 H   0  0  0  0  0  0
   -2.6133    3.1810    0.4757 H   0  0  0  0  0  0
   -0.6316   -0.6417    0.0526 H   0  0  0  0  0  0
    1.2591   -1.8130   -1.6604 H   0  0  0  0  0  0
    1.9910   -5.8987    1.2481 H   0  0  0  0  0  0
    5.4115   -6.0448   -2.8512 H   0  0  0  0  0  0
    6.1799   -7.1004   -1.6577 H   0  0  0  0  0  0
    4.5609   -7.4811   -2.2612 H   0  0  0  0  0  0
    1.8586   -0.0556   -2.0280 H   0  0  0  0  0  0
    1.9424    1.5180   -1.3191 H   0  0  0  0  0  0
    3.9941   -0.6862   -0.8735 H   0  0  0  0  0  0
    4.1932    0.7518   -1.8403 H   0  0  0  0  0  0
    5.2423    1.0151    0.4140 H   0  0  0  0  0  0
    3.9871    2.1991    0.1404 H   0  0  0  0  0  0
    3.7365   -0.3593    1.7882 H   0  0  0  0  0  0
    3.7387    1.2699    2.4018 H   0  0  0  0  0  0
    1.6399    1.7973    1.3045 H   0  0  0  0  0  0
    1.4101    0.3894    2.2862 H   0  0  0  0  0  0
   -2.2411   -0.8081   -1.1620 H   0  0  0  0  0  0
   -4.6774   -0.9951   -1.2690 H   0  0  0  0  0  0
  1  2  1  0  0  0
  1 32  1  0  0  0
  1 33  1  0  0  0
  1 34  1  0  0  0
  2  3  1  0  0  0
  3 29  1  0  0  0
  3  4  2  0  0  0
  4  5  1  0  0  0
  4 35  1  0  0  0
  5  6  2  0  0  0
  5 36  1  0  0  0
  6  7  1  0  0  0
  6 28  1  0  0  0
  7  8  2  0  0  0
  7  9  1  0  0  0
  9 10  1  0  0  0
  9 37  1  0  0  0
 10 27  1  0  0  0
 10 11  1  0  0  0
 10 23  1  0  0  0
 11 12  2  0  0  0
 11 13  1  0  0  0
 13 14  1  0  0  0
 13 38  1  0  0  0
 14 30  1  0  0  0
 14 18  1  0  0  0
 14 15  1  0  0  0
 15 16  2  0  0  0
 15 17  1  0  0  0
 17 18  1  0  0  0
 17 39  1  0  0  0
 18 31  1  0  0  0
 18 19  1  0  0  0
 19 20  1  0  0  0
 20 21  1  0  0  0
 20 22  2  0  0  0
 21 40  1  0  0  0
 21 41  1  0  0  0
 21 42  1  0  0  0
 23 24  1  0  0  0
 23 43  1  0  0  0
 23 44  1  0  0  0
 24 25  1  0  0  0
 24 45  1  0  0  0
 24 46  1  0  0  0
 25 26  1  0  0  0
 25 47  1  0  0  0
 25 48  1  0  0  0
 26 27  1  0  0  0
 26 49  1  0  0  0
 26 50  1  0  0  0
 27 51  1  0  0  0
 27 52  1  0  0  0
 28 29  2  0  0  0
 28 53  1  0  0  0
 29 54  1  0  0  0
M  END
$$$$
173
                    3D
 Schrodinger Suite 2021-2.
 47 49  0  0  1  0            999 V2000
   -4.1773   -3.9934   -1.6471 C   0  0  0  0  0  0
   -3.4575   -2.7798   -1.5237 O   0  0  0  0  0  0
   -2.7241   -2.7055   -0.3125 C   0  0  0  0  0  0
   -2.0186   -1.3713   -0.1721 C   0  0  0  0  0  0
   -0.6626   -1.3664   -0.2462 N   0  0  0  0  0  0
    0.0537   -0.2149   -0.1269 C   0  0  0  0  0  0
    1.4715   -0.1610   -0.1885 N   0  0  0  0  0  0
    2.3336   -1.1749   -0.3820 C   0  0  0  0  0  0
    2.0201   -2.3489   -0.5819 O   0  0  0  0  0  0
    3.6036   -0.7468   -0.3301 N   0  0  0  0  0  0
    4.7908   -1.5820   -0.5085 C   0  0  2  0  0  0
    5.1516   -2.2834    0.8111 C   0  0  0  0  0  0
    5.9759   -0.7880   -1.0454 C   0  0  0  0  0  0
    6.8715   -1.3999   -1.9491 C   0  0  0  0  0  0
    7.9789   -0.6867   -2.4486 C   0  0  0  0  0  0
    8.2013    0.6433   -2.0442 C   0  0  0  0  0  0
    9.2657    1.3291   -2.5243 F   0  0  0  0  0  0
    7.3176    1.2584   -1.1373 C   0  0  0  0  0  0
    6.2106    0.5455   -0.6370 C   0  0  0  0  0  0
   -0.5833    1.0290    0.0791 C   0  0  0  0  0  0
   -1.9822    1.0334    0.1562 C   0  0  0  0  0  0
   -3.0036    1.9615    0.3400 N   0  0  0  0  0  0
   -4.2683    1.4212    0.3355 N   0  0  0  0  0  0
   -4.0909    0.1163    0.1456 C   0  0  0  0  0  0
   -5.1439   -0.7670    0.0821 O   0  0  0  0  0  0
   -6.4549   -0.2293    0.1934 C   0  0  0  0  0  0
   -2.7129   -0.1544    0.0335 C   0  0  0  0  0  0
    4.5573   -2.3484   -1.2503 H   0  0  0  0  0  0
   -2.8799    2.9554    0.4700 H   0  0  0  0  0  0
   -4.7155   -4.0056   -2.5947 H   0  0  0  0  0  0
   -3.5075   -4.8541   -1.6286 H   0  0  0  0  0  0
   -4.9081   -4.1004   -0.8444 H   0  0  0  0  0  0
   -3.3907   -2.8366    0.5413 H   0  0  0  0  0  0
   -1.9931   -3.5152   -0.2742 H   0  0  0  0  0  0
    1.8769    0.7534   -0.0543 H   0  0  0  0  0  0
    3.7653    0.2353   -0.1626 H   0  0  0  0  0  0
    6.0079   -2.9457    0.6807 H   0  0  0  0  0  0
    5.4052   -1.5611    1.5878 H   0  0  0  0  0  0
    4.3232   -2.8901    1.1784 H   0  0  0  0  0  0
    6.7122   -2.4210   -2.2638 H   0  0  0  0  0  0
    8.6583   -1.1611   -3.1414 H   0  0  0  0  0  0
    7.4900    2.2772   -0.8230 H   0  0  0  0  0  0
    5.5487    1.0294    0.0659 H   0  0  0  0  0  0
   -0.0207    1.9461    0.1754 H   0  0  0  0  0  0
   -7.1841   -1.0350    0.1111 H   0  0  0  0  0  0
   -6.6036    0.2574    1.1583 H   0  0  0  0  0  0
   -6.6600    0.4871   -0.6036 H   0  0  0  0  0  0
  1  2  1  0  0  0
  1 30  1  0  0  0
  1 31  1  0  0  0
  1 32  1  0  0  0
  2  3  1  0  0  0
  3  4  1  0  0  0
  3 33  1  0  0  0
  3 34  1  0  0  0
  4 27  1  0  0  0
  4  5  2  0  0  0
  5  6  1  0  0  0
  6  7  1  0  0  0
  6 20  2  0  0  0
  7  8  1  0  0  0
  7 35  1  0  0  0
  8  9  2  0  0  0
  8 10  1  0  0  0
 10 11  1  0  0  0
 10 36  1  0  0  0
 11 28  1  0  0  0
 11 12  1  0  0  0
 11 13  1  0  0  0
 12 37  1  0  0  0
 12 38  1  0  0  0
 12 39  1  0  0  0
 13 19  1  0  0  0
 13 14  2  0  0  0
 14 15  1  0  0  0
 14 40  1  0  0  0
 15 16  2  0  0  0
 15 41  1  0  0  0
 16 17  1  0  0  0
 16 18  1  0  0  0
 18 19  2  0  0  0
 18 42  1  0  0  0
 19 43  1  0  0  0
 20 21  1  0  0  0
 20 44  1  0  0  0
 21 27  2  0  0  0
 21 22  1  0  0  0
 22 29  1  0  0  0
 22 23  1  0  0  0
 23 24  2  0  0  0
 24 25  1  0  0  0
 24 27  1  0  0  0
 25 26  1  0  0  0
 26 45  1  0  0  0
 26 46  1  0  0  0
 26 47  1  0  0  0
M  END
$$$$
174
                    3D
 Schrodinger Suite 2021-2.
 51 55  0  0  1  0            999 V2000
   -5.8724    3.8974   -1.9945 C   0  0  0  0  0  0
   -6.1214    3.5578   -0.5122 C   0  0  0  0  0  0
   -5.5507    4.6604    0.4010 C   0  0  0  0  0  0
   -7.6489    3.5166   -0.2894 C   0  0  0  0  0  0
   -5.4817    2.2319   -0.1769 C   0  0  0  0  0  0
   -4.1581    2.0310   -0.2507 N   0  0  0  0  0  0
   -3.8010    0.7276    0.0963 C   0  0  0  0  0  0
   -4.8531   -0.0689    0.4499 C   0  0  0  0  0  0
   -6.3662    0.7790    0.3299 S   0  0  0  0  0  0
   -4.6937   -1.4974    0.8984 C   0  0  0  0  0  0
   -3.3446   -2.1483    0.4559 C   0  0  0  0  0  0
   -2.2310   -1.1406    0.2830 C   0  0  0  0  0  0
   -0.8756   -1.4766    0.2570 N   0  0  0  0  0  0
   -0.1046   -0.3972    0.0471 C   0  0  0  0  0  0
    1.3123   -0.4323   -0.0287 N   0  0  0  0  0  0
    2.1372   -1.4857    0.1401 C   0  0  0  0  0  0
    1.7529   -2.6155    0.4443 O   0  0  0  0  0  0
    3.4485   -1.1785   -0.0249 N   0  0  0  0  0  0
    3.9630    0.0960   -0.5574 C   0  0  0  0  0  0
    5.4959   -0.0217   -0.6570 C   0  0  0  0  0  0
    5.8289   -1.4360   -0.2715 C   0  0  2  0  0  0
    5.2936   -2.6626   -0.9774 C   0  0  0  0  0  0
    4.5568   -2.0701    0.2041 C   0  0  2  0  0  0
    4.6389   -2.7345    1.5521 C   0  0  0  0  0  0
    4.4155   -1.9390    2.6032 N   0  0  0  0  0  0
    4.9028   -3.9272    1.6882 O   0  0  0  0  0  0
   -1.0029    1.1099   -0.1486 S   0  0  0  0  0  0
   -2.4601    0.1931    0.0901 C   0  0  0  0  0  0
    6.7409   -1.5678    0.3090 H   0  0  0  0  0  0
   -6.2815    3.1289   -2.6517 H   0  0  0  0  0  0
   -6.3350    4.8461   -2.2686 H   0  0  0  0  0  0
   -4.8069    3.9815   -2.2114 H   0  0  0  0  0  0
   -5.7285    4.4357    1.4534 H   0  0  0  0  0  0
   -4.4743    4.7738    0.2669 H   0  0  0  0  0  0
   -6.0062    5.6283    0.1890 H   0  0  0  0  0  0
   -7.8982    3.2846    0.7470 H   0  0  0  0  0  0
   -8.1086    4.4779   -0.5223 H   0  0  0  0  0  0
   -8.1296    2.7704   -0.9232 H   0  0  0  0  0  0
   -4.7306   -1.5008    1.9881 H   0  0  0  0  0  0
   -5.5356   -2.1061    0.5680 H   0  0  0  0  0  0
   -3.0626   -2.9415    1.1489 H   0  0  0  0  0  0
   -3.5046   -2.6375   -0.5055 H   0  0  0  0  0  0
    1.7556    0.4482   -0.2451 H   0  0  0  0  0  0
    3.5360    0.2856   -1.5437 H   0  0  0  0  0  0
    3.6860    0.9266    0.0938 H   0  0  0  0  0  0
    5.8610    0.1929   -1.6617 H   0  0  0  0  0  0
    5.9819    0.6646    0.0369 H   0  0  0  0  0  0
    4.8459   -2.5379   -1.9614 H   0  0  0  0  0  0
    5.8369   -3.5947   -0.8349 H   0  0  0  0  0  0
    4.4544   -2.3207    3.5372 H   0  0  0  0  0  0
    4.2036   -0.9627    2.4594 H   0  0  0  0  0  0
  1  2  1  0  0  0
  1 30  1  0  0  0
  1 31  1  0  0  0
  1 32  1  0  0  0
  2  3  1  0  0  0
  2  4  1  0  0  0
  2  5  1  0  0  0
  3 33  1  0  0  0
  3 34  1  0  0  0
  3 35  1  0  0  0
  4 36  1  0  0  0
  4 37  1  0  0  0
  4 38  1  0  0  0
  5  9  1  0  0  0
  5  6  2  0  0  0
  6  7  1  0  0  0
  7 28  1  0  0  0
  7  8  2  0  0  0
  8  9  1  0  0  0
  8 10  1  0  0  0
 10 11  1  0  0  0
 10 39  1  0  0  0
 10 40  1  0  0  0
 11 12  1  0  0  0
 11 41  1  0  0  0
 11 42  1  0  0  0
 12 28  2  0  0  0
 12 13  1  0  0  0
 13 14  2  0  0  0
 14 15  1  0  0  0
 14 27  1  0  0  0
 15 16  1  0  0  0
 15 43  1  0  0  0
 16 17  2  0  0  0
 16 18  1  0  0  0
 18 23  1  0  0  0
 18 19  1  0  0  0
 19 20  1  0  0  0
 19 44  1  0  0  0
 19 45  1  0  0  0
 20 21  1  0  0  0
 20 46  1  0  0  0
 20 47  1  0  0  0
 21 29  1  0  0  0
 21 23  1  0  0  0
 21 22  1  0  0  0
 22 23  1  0  0  0
 22 48  1  0  0  0
 22 49  1  0  0  0
 23 24  1  0  0  0
 24 25  1  0  0  0
 24 26  2  0  0  0
 25 50  1  0  0  0
 25 51  1  0  0  0
 27 28  1  0  0  0
M  END
$$$$
175
                    3D
 Schrodinger Suite 2021-2.
 61 65  0  0  1  0            999 V2000
   -0.8476   -5.9897   -0.3945 C   0  0  0  0  0  0
   -1.7546   -5.0557   -0.0717 C   0  0  0  0  0  0
   -1.4920   -3.8914    0.8635 C   0  0  0  0  0  0
   -1.6690   -2.5903    0.1708 N   0  3  2  0  0  0
   -0.7397   -2.3990   -0.9827 C   0  0  0  0  0  0
   -0.4900   -0.9056   -1.2939 C   0  0  1  0  0  0
   -1.7620   -0.1770   -1.5776 C   0  0  0  0  0  0
   -2.0529    0.4216   -2.7907 N   0  0  0  0  0  0
   -3.2984    1.0166   -2.7478 C   0  0  0  0  0  0
   -4.0401    1.7318   -3.7026 C   0  0  0  0  0  0
   -5.3126    2.2267   -3.3632 C   0  0  0  0  0  0
   -5.8424    2.0074   -2.0665 C   0  0  0  0  0  0
   -7.0784    2.4533   -1.6510 O   0  0  0  0  0  0
   -7.8900    3.1461   -2.5880 C   0  0  0  0  0  0
   -5.0760    1.2902   -1.1235 C   0  0  0  0  0  0
   -3.7956    0.7769   -1.4340 C   0  0  0  0  0  0
   -2.8054    0.0252   -0.7114 C   0  0  0  0  0  0
   -2.8655   -0.4652    0.7103 C   0  0  0  0  0  0
   -1.7083   -1.4207    1.0983 C   0  0  2  0  0  0
   -0.3254   -0.7228    1.1822 C   0  0  0  0  0  0
    0.1660   -0.2342   -0.1373 N   0  3  1  0  0  0
    1.6464   -0.1608   -0.2111 C   0  0  0  0  0  0
    2.1155    0.7571   -1.3263 C   0  0  0  0  0  0
    1.9802    2.1536   -1.1946 C   0  0  0  0  0  0
    2.4057    3.0056   -2.2314 C   0  0  0  0  0  0
    2.9735    2.4815   -3.4109 C   0  0  0  0  0  0
    3.3623    3.3865   -4.3749 O   0  0  0  0  0  0
    3.9454    2.8836   -5.5683 C   0  0  0  0  0  0
    3.1107    1.0761   -3.5361 C   0  0  0  0  0  0
    2.6857    0.2228   -2.4996 C   0  0  0  0  0  0
   -2.5981   -2.6276   -0.2250 H   0  0  0  0  0  0
    0.1444   -0.8400   -2.1774 H   0  0  0  0  0  0
   -1.4271    0.4117   -3.5842 H   0  0  0  0  0  0
   -1.9443   -1.7744    2.1031 H   0  0  0  0  0  0
   -0.1412    0.7266   -0.1976 H   0  0  0  0  0  0
    0.1547   -5.9644    0.0079 H   0  0  0  0  0  0
   -1.0981   -6.7960   -1.0684 H   0  0  0  0  0  0
   -2.7466   -5.1170   -0.4959 H   0  0  0  0  0  0
   -2.1990   -3.9734    1.6900 H   0  0  0  0  0  0
   -0.4892   -3.9576    1.2890 H   0  0  0  0  0  0
    0.2168   -2.8812   -0.7737 H   0  0  0  0  0  0
   -1.1558   -2.9018   -1.8567 H   0  0  0  0  0  0
   -3.6390    1.9000   -4.6912 H   0  0  0  0  0  0
   -5.8633    2.7718   -4.1148 H   0  0  0  0  0  0
   -8.8339    3.4166   -2.1150 H   0  0  0  0  0  0
   -7.4137    4.0681   -2.9239 H   0  0  0  0  0  0
   -8.1216    2.5220   -3.4521 H   0  0  0  0  0  0
   -5.4810    1.1252   -0.1360 H   0  0  0  0  0  0
   -2.8764    0.3860    1.3918 H   0  0  0  0  0  0
   -3.8141   -0.9797    0.8698 H   0  0  0  0  0  0
   -0.3544    0.1138    1.8810 H   0  0  0  0  0  0
    0.3926   -1.4371    1.5897 H   0  0  0  0  0  0
    2.0375    0.2329    0.7285 H   0  0  0  0  0  0
    2.0671   -1.1604   -0.3313 H   0  0  0  0  0  0
    1.5473    2.5767   -0.2998 H   0  0  0  0  0  0
    2.2959    4.0746   -2.1206 H   0  0  0  0  0  0
    4.2031    3.7171   -6.2214 H   0  0  0  0  0  0
    4.8632    2.3312   -5.3623 H   0  0  0  0  0  0
    3.2509    2.2414   -6.1116 H   0  0  0  0  0  0
    3.5402    0.6275   -4.4190 H   0  0  0  0  0  0
    2.7970   -0.8457   -2.6127 H   0  0  0  0  0  0
  1  2  2  0  0  0
  1 36  1  0  0  0
  1 37  1  0  0  0
  2  3  1  0  0  0
  2 38  1  0  0  0
  3  4  1  0  0  0
  3 39  1  0  0  0
  3 40  1  0  0  0
  4 31  1  0  0  0
  4 19  1  0  0  0
  4  5  1  0  0  0
  5  6  1  0  0  0
  5 41  1  0  0  0
  5 42  1  0  0  0
  6 32  1  0  0  0
  6 21  1  0  0  0
  6  7  1  0  0  0
  7 17  2  0  0  0
  7  8  1  0  0  0
  8 33  1  0  0  0
  8  9  1  0  0  0
  9 16  1  0  0  0
  9 10  2  0  0  0
 10 11  1  0  0  0
 10 43  1  0  0  0
 11 12  2  0  0  0
 11 44  1  0  0  0
 12 13  1  0  0  0
 12 15  1  0  0  0
 13 14  1  0  0  0
 14 45  1  0  0  0
 14 46  1  0  0  0
 14 47  1  0  0  0
 15 16  2  0  0  0
 15 48  1  0  0  0
 16 17  1  0  0  0
 17 18  1  0  0  0
 18 19  1  0  0  0
 18 49  1  0  0  0
 18 50  1  0  0  0
 19 34  1  0  0  0
 19 20  1  0  0  0
 20 21  1  0  0  0
 20 51  1  0  0  0
 20 52  1  0  0  0
 21 35  1  0  0  0
 21 22  1  0  0  0
 22 23  1  0  0  0
 22 53  1  0  0  0
 22 54  1  0  0  0
 23 30  1  0  0  0
 23 24  2  0  0  0
 24 25  1  0  0  0
 24 55  1  0  0  0
 25 26  2  0  0  0
 25 56  1  0  0  0
 26 27  1  0  0  0
 26 29  1  0  0  0
 27 28  1  0  0  0
 28 57  1  0  0  0
 28 58  1  0  0  0
 28 59  1  0  0  0
 29 30  2  0  0  0
 29 60  1  0  0  0
 30 61  1  0  0  0
M  CHG  2   4   1  21   1
M  END
$$$$
176
                    3D
 Schrodinger Suite 2021-2.
 58 59  0  0  1  0            999 V2000
   -0.5538   -1.2751   -0.6885 C   0  0  0  0  0  0
    0.0287    0.0383   -0.1813 C   0  0  0  0  0  0
   -0.7209    1.1099    0.1813 C   0  0  0  0  0  0
   -0.1383    2.4232    0.6886 C   0  0  0  0  0  0
   -2.1915    1.0875    0.1560 C   0  0  0  0  0  0
   -2.8974    1.8647   -0.7851 C   0  0  0  0  0  0
   -4.3050    1.8612   -0.7979 C   0  0  0  0  0  0
   -5.0248    1.0875    0.1368 C   0  0  0  0  0  0
   -6.5466    1.0969    0.1090 C   0  0  0  0  0  0
   -7.1280    1.8712    1.2336 N   0  3  0  0  0  0
   -6.8261    3.3197    1.1698 C   0  0  0  0  0  0
   -8.5768    1.6183    1.3909 C   0  0  0  0  0  0
   -4.3199    0.3156    1.0892 C   0  0  0  0  0  0
   -4.9891   -0.4340    2.0145 O   0  0  0  0  0  0
   -2.9110    0.3211    1.0974 C   0  0  0  0  0  0
    1.4995    0.0607   -0.1560 C   0  0  0  0  0  0
    2.2053   -0.7166    0.7850 C   0  0  0  0  0  0
    3.6129   -0.7131    0.7979 C   0  0  0  0  0  0
    4.3327    0.0606   -0.1368 C   0  0  0  0  0  0
    5.8545    0.0512   -0.1091 C   0  0  0  0  0  0
    6.4359   -0.7230   -1.2336 N   0  3  0  0  0  0
    7.8847   -0.4701   -1.3908 C   0  0  0  0  0  0
    6.1339   -2.1716   -1.1699 C   0  0  0  0  0  0
    3.6278    0.8327   -1.0892 C   0  0  0  0  0  0
    4.2970    1.5821   -2.0144 O   0  0  0  0  0  0
    2.2188    0.8270   -1.0973 C   0  0  0  0  0  0
   -6.6889    1.5203    2.0732 H   0  0  0  0  0  0
    5.9968   -0.3721   -2.0732 H   0  0  0  0  0  0
   -0.1688   -1.4878   -1.6862 H   0  0  0  0  0  0
   -0.2621   -2.0962   -0.0335 H   0  0  0  0  0  0
   -1.6403   -1.2758   -0.7562 H   0  0  0  0  0  0
   -0.5233    2.6359    1.6862 H   0  0  0  0  0  0
    0.9482    2.4239    0.7562 H   0  0  0  0  0  0
   -0.4301    3.2444    0.0334 H   0  0  0  0  0  0
   -2.3586    2.4639   -1.5047 H   0  0  0  0  0  0
   -4.8303    2.4590   -1.5286 H   0  0  0  0  0  0
   -6.9066    1.4971   -0.8402 H   0  0  0  0  0  0
   -6.8924    0.0632    0.1559 H   0  0  0  0  0  0
   -7.2382    3.7648    0.2635 H   0  0  0  0  0  0
   -7.2531    3.8386    2.0286 H   0  0  0  0  0  0
   -5.7515    3.5022    1.1836 H   0  0  0  0  0  0
   -9.1310    1.9661    0.5181 H   0  0  0  0  0  0
   -8.7723    0.5530    1.5187 H   0  0  0  0  0  0
   -8.9656    2.1326    2.2704 H   0  0  0  0  0  0
   -4.4114   -0.9187    2.5849 H   0  0  0  0  0  0
   -2.3754   -0.2655    1.8301 H   0  0  0  0  0  0
    1.6665   -1.3158    1.5047 H   0  0  0  0  0  0
    4.1382   -1.3108    1.5286 H   0  0  0  0  0  0
    6.2003    1.0849   -0.1558 H   0  0  0  0  0  0
    6.2145   -0.3489    0.8403 H   0  0  0  0  0  0
    8.4388   -0.8180   -0.5181 H   0  0  0  0  0  0
    8.2735   -0.9844   -2.2704 H   0  0  0  0  0  0
    8.0801    0.5951   -1.5187 H   0  0  0  0  0  0
    6.5461   -2.6167   -0.2635 H   0  0  0  0  0  0
    5.0594   -2.3540   -1.1837 H   0  0  0  0  0  0
    6.5609   -2.6904   -2.0286 H   0  0  0  0  0  0
    3.7193    2.0669   -2.5849 H   0  0  0  0  0  0
    1.6833    1.4137   -1.8300 H   0  0  0  0  0  0
  1  2  1  0  0  0
  1 29  1  0  0  0
  1 30  1  0  0  0
  1 31  1  0  0  0
  2  3  2  0  0  0
  2 16  1  0  0  0
  3  4  1  0  0  0
  3  5  1  0  0  0
  4 32  1  0  0  0
  4 33  1  0  0  0
  4 34  1  0  0  0
  5 15  1  0  0  0
  5  6  2  0  0  0
  6  7  1  0  0  0
  6 35  1  0  0  0
  7  8  2  0  0  0
  7 36  1  0  0  0
  8  9  1  0  0  0
  8 13  1  0  0  0
  9 10  1  0  0  0
  9 37  1  0  0  0
  9 38  1  0  0  0
 10 27  1  0  0  0
 10 11  1  0  0  0
 10 12  1  0  0  0
 11 39  1  0  0  0
 11 40  1  0  0  0
 11 41  1  0  0  0
 12 42  1  0  0  0
 12 43  1  0  0  0
 12 44  1  0  0  0
 13 14  1  0  0  0
 13 15  2  0  0  0
 14 45  1  0  0  0
 15 46  1  0  0  0
 16 26  1  0  0  0
 16 17  2  0  0  0
 17 18  1  0  0  0
 17 47  1  0  0  0
 18 19  2  0  0  0
 18 48  1  0  0  0
 19 20  1  0  0  0
 19 24  1  0  0  0
 20 21  1  0  0  0
 20 49  1  0  0  0
 20 50  1  0  0  0
 21 28  1  0  0  0
 21 22  1  0  0  0
 21 23  1  0  0  0
 22 51  1  0  0  0
 22 52  1  0  0  0
 22 53  1  0  0  0
 23 54  1  0  0  0
 23 55  1  0  0  0
 23 56  1  0  0  0
 24 25  1  0  0  0
 24 26  2  0  0  0
 25 57  1  0  0  0
 26 58  1  0  0  0
M  CHG  2  10   1  21   1
M  END
$$$$
177
                    3D
 Schrodinger Suite 2021-2.
 55 58  0  0  1  0            999 V2000
   -4.2915    2.2228   -0.0008 C   0  0  0  0  0  0
   -2.8850    2.3935   -0.0010 O   0  0  0  0  0  0
   -2.1909    1.1577   -0.0026 C   0  0  0  0  0  0
   -0.6843    1.4284    0.0040 C   0  0  0  0  0  0
   -0.0026    0.1819    0.0115 O   0  0  0  0  0  0
    1.3773    0.1827    0.0119 C   0  0  0  0  0  0
    2.1643    1.3588    0.0197 C   0  0  0  0  0  0
    3.5729    1.3099    0.0182 C   0  0  0  0  0  0
    4.2667    2.4691    0.0271 N   0  0  0  0  0  0
    5.6121    2.4326    0.0244 C   0  0  0  0  0  0
    6.3537    1.2339    0.0110 C   0  0  0  0  0  0
    7.7704    1.2074    0.0060 C   0  0  0  0  0  0
    8.5301    2.3779    0.0166 N   0  0  0  0  0  0
    8.4789    0.0603   -0.0089 N   0  0  0  0  0  0
    7.8121   -1.1119   -0.0178 C   0  0  0  0  0  0
    8.6057   -2.2674   -0.0321 N   0  0  0  0  0  0
    8.5205   -3.0040   -1.2911 C   0  0  0  0  0  0
    9.5509   -4.1465   -1.3297 C   0  0  0  0  0  0
    9.4006   -5.0592   -0.1000 C   0  0  0  0  0  0
   10.4143   -6.0424   -0.1055 O   0  0  0  0  0  0
    9.4886   -4.2242    1.1891 C   0  0  0  0  0  0
    8.4551   -3.0852    1.1693 C   0  0  0  0  0  0
    6.4012   -1.1888   -0.0137 C   0  0  0  0  0  0
    5.6423    0.0072    0.0016 C   0  0  0  0  0  0
    4.2182    0.0413    0.0070 C   0  0  0  0  0  0
    3.4300   -1.1350    0.0017 C   0  0  0  0  0  0
    2.0156   -1.0737    0.0046 C   0  0  0  0  0  0
    1.1991   -2.1867   -0.0004 O   0  0  0  0  0  0
    1.8024   -3.4723    0.0000 C   0  0  0  0  0  0
   -4.7797    3.1973    0.0004 H   0  0  0  0  0  0
   -4.6232    1.6810   -0.8877 H   0  0  0  0  0  0
   -4.6226    1.6793    0.8852 H   0  0  0  0  0  0
   -2.4672    0.5723    0.8759 H   0  0  0  0  0  0
   -2.4614    0.5771   -0.8860 H   0  0  0  0  0  0
   -0.4114    2.0050   -0.8813 H   0  0  0  0  0  0
   -0.4207    2.0100    0.8887 H   0  0  0  0  0  0
    1.6993    2.3331    0.0270 H   0  0  0  0  0  0
    6.0992    3.3966    0.0320 H   0  0  0  0  0  0
    8.0993    3.2910    0.0323 H   0  0  0  0  0  0
    9.5395    2.3458    0.0163 H   0  0  0  0  0  0
    7.5150   -3.4099   -1.4103 H   0  0  0  0  0  0
    8.6918   -2.3235   -2.1264 H   0  0  0  0  0  0
    9.4319   -4.7235   -2.2473 H   0  0  0  0  0  0
   10.5565   -3.7239   -1.3568 H   0  0  0  0  0  0
    8.4359   -5.5669   -0.1397 H   0  0  0  0  0  0
   10.2882   -6.6095    0.6400 H   0  0  0  0  0  0
    9.3276   -4.8560    2.0631 H   0  0  0  0  0  0
   10.4896   -3.8014    1.2903 H   0  0  0  0  0  0
    8.5750   -2.4607    2.0554 H   0  0  0  0  0  0
    7.4484   -3.5032    1.2054 H   0  0  0  0  0  0
    5.9398   -2.1626   -0.0243 H   0  0  0  0  0  0
    3.9081   -2.0985   -0.0046 H   0  0  0  0  0  0
    1.0229   -4.2340   -0.0025 H   0  0  0  0  0  0
    2.4155   -3.6263   -0.8890 H   0  0  0  0  0  0
    2.4110   -3.6274    0.8920 H   0  0  0  0  0  0
  1  2  1  0  0  0
  1 30  1  0  0  0
  1 31  1  0  0  0
  1 32  1  0  0  0
  2  3  1  0  0  0
  3  4  1  0  0  0
  3 33  1  0  0  0
  3 34  1  0  0  0
  4  5  1  0  0  0
  4 35  1  0  0  0
  4 36  1  0  0  0
  5  6  1  0  0  0
  6 27  1  0  0  0
  6  7  2  0  0  0
  7  8  1  0  0  0
  7 37  1  0  0  0
  8 25  2  0  0  0
  8  9  1  0  0  0
  9 10  2  0  0  0
 10 11  1  0  0  0
 10 38  1  0  0  0
 11 24  1  0  0  0
 11 12  2  0  0  0
 12 13  1  0  0  0
 12 14  1  0  0  0
 13 39  1  0  0  0
 13 40  1  0  0  0
 14 15  2  0  0  0
 15 16  1  0  0  0
 15 23  1  0  0  0
 16 22  1  0  0  0
 16 17  1  0  0  0
 17 18  1  0  0  0
 17 41  1  0  0  0
 17 42  1  0  0  0
 18 19  1  0  0  0
 18 43  1  0  0  0
 18 44  1  0  0  0
 19 20  1  0  0  0
 19 21  1  0  0  0
 19 45  1  0  0  0
 20 46  1  0  0  0
 21 22  1  0  0  0
 21 47  1  0  0  0
 21 48  1  0  0  0
 22 49  1  0  0  0
 22 50  1  0  0  0
 23 24  2  0  0  0
 23 51  1  0  0  0
 24 25  1  0  0  0
 25 26  1  0  0  0
 26 27  2  0  0  0
 26 52  1  0  0  0
 27 28  1  0  0  0
 28 29  1  0  0  0
 29 53  1  0  0  0
 29 54  1  0  0  0
 29 55  1  0  0  0
M  END
$$$$
178
                    3D
 Schrodinger Suite 2021-2.
 42 44  0  0  1  0            999 V2000
   -2.5209    1.3131   -1.2447 C   0  0  0  0  0  0
   -2.0600    1.5055    0.2101 C   0  0  0  0  0  0
   -2.7459    2.7215    0.8579 C   0  0  0  0  0  0
   -0.5287    1.5811    0.2952 C   0  0  0  0  0  0
    0.0595    2.6102    0.6354 O   0  0  0  0  0  0
    0.0585    0.4124   -0.0459 O   0  0  0  0  0  0
    1.4265    0.3032   -0.0276 C   0  0  0  0  0  0
    2.1283    0.1885   -1.2414 C   0  0  0  0  0  0
    3.5306    0.0515   -1.2503 C   0  0  0  0  0  0
    4.1484   -0.0463   -2.4660 O   0  0  0  0  0  0
    4.2493    0.0179   -0.0229 C   0  0  0  0  0  0
    5.7312   -0.1207    0.0563 C   0  0  0  0  0  0
    6.4639   -0.2013   -0.9288 O   0  0  0  0  0  0
    6.3008   -0.1575    1.4092 C   0  0  0  0  0  0
    5.5264   -0.0755    2.5134 C   0  0  0  0  0  0
    6.0741   -0.0694    3.8864 C   0  0  0  0  0  0
    7.4127    0.3021    4.1509 C   0  0  0  0  0  0
    7.9058    0.2875    5.4700 C   0  0  0  0  0  0
    7.0707   -0.0996    6.5358 C   0  0  0  0  0  0
    7.5632   -0.1074    7.8098 O   0  0  0  0  0  0
    5.7347   -0.4747    6.2789 C   0  0  0  0  0  0
    4.9115   -0.8546    7.3005 O   0  0  0  0  0  0
    5.2416   -0.4600    4.9589 C   0  0  0  0  0  0
    4.1632    0.0864    2.4219 O   0  0  0  0  0  0
    3.5362    0.1156    1.1976 C   0  0  0  0  0  0
    2.1347    0.2507    1.1893 C   0  0  0  0  0  0
   -2.0648    0.4335   -1.7006 H   0  0  0  0  0  0
   -3.6014    1.1778   -1.2940 H   0  0  0  0  0  0
   -2.2678    2.1774   -1.8599 H   0  0  0  0  0  0
   -2.3558    0.6206    0.7746 H   0  0  0  0  0  0
   -2.4294    2.8529    1.8933 H   0  0  0  0  0  0
   -2.5226    3.6430    0.3188 H   0  0  0  0  0  0
   -3.8291    2.5974    0.8636 H   0  0  0  0  0  0
    1.5837    0.2110   -2.1744 H   0  0  0  0  0  0
    3.5476   -0.0053   -3.1942 H   0  0  0  0  0  0
    7.3722   -0.2669    1.4833 H   0  0  0  0  0  0
    8.0731    0.6140    3.3561 H   0  0  0  0  0  0
    8.9287    0.5774    5.6612 H   0  0  0  0  0  0
    8.4672    0.1624    7.8606 H   0  0  0  0  0  0
    4.0418   -1.0831    7.0110 H   0  0  0  0  0  0
    4.2186   -0.7550    4.7750 H   0  0  0  0  0  0
    1.6005    0.3204    2.1257 H   0  0  0  0  0  0
  1  2  1  0  0  0
  1 27  1  0  0  0
  1 28  1  0  0  0
  1 29  1  0  0  0
  2  3  1  0  0  0
  2  4  1  0  0  0
  2 30  1  0  0  0
  3 31  1  0  0  0
  3 32  1  0  0  0
  3 33  1  0  0  0
  4  5  2  0  0  0
  4  6  1  0  0  0
  6  7  1  0  0  0
  7 26  1  0  0  0
  7  8  2  0  0  0
  8  9  1  0  0  0
  8 34  1  0  0  0
  9 10  1  0  0  0
  9 11  2  0  0  0
 10 35  1  0  0  0
 11 25  1  0  0  0
 11 12  1  0  0  0
 12 13  2  0  0  0
 12 14  1  0  0  0
 14 15  2  0  0  0
 14 36  1  0  0  0
 15 16  1  0  0  0
 15 24  1  0  0  0
 16 23  1  0  0  0
 16 17  2  0  0  0
 17 18  1  0  0  0
 17 37  1  0  0  0
 18 19  2  0  0  0
 18 38  1  0  0  0
 19 20  1  0  0  0
 19 21  1  0  0  0
 20 39  1  0  0  0
 21 22  1  0  0  0
 21 23  2  0  0  0
 22 40  1  0  0  0
 23 41  1  0  0  0
 24 25  1  0  0  0
 25 26  2  0  0  0
 26 42  1  0  0  0
M  END
$$$$
179
                    3D
 Schrodinger Suite 2021-2.
 51 54  0  0  1  0            999 V2000
   -6.5480    0.9388    0.5159 C   0  0  0  0  0  0
   -5.0878    1.1644    0.1168 C   0  0  0  0  0  0
   -4.2916    0.1504    0.7144 O   0  0  0  0  0  0
   -2.9313    0.1716    0.4921 C   0  0  0  0  0  0
   -2.1696   -0.8542    1.0837 C   0  0  0  0  0  0
   -0.7735   -0.9103    0.9122 C   0  0  0  0  0  0
   -0.0980    0.0660    0.1408 C   0  0  0  0  0  0
    1.3730    0.0107   -0.0381 C   0  0  0  0  0  0
    2.0159   -1.0831    0.4223 N   0  0  0  0  0  0
    3.3653   -1.1726    0.2810 C   0  0  0  0  0  0
    4.0838   -2.3940    0.7902 C   0  0  0  0  0  0
    3.3861   -3.1864    1.6106 N   0  0  0  0  0  0
    5.2513   -2.6331    0.4864 O   0  0  0  0  0  0
    4.0346   -0.1086   -0.3544 C   0  0  0  0  0  0
    5.3794    0.1391   -0.6520 N   0  0  0  0  0  0
    5.4922    1.3363   -1.2572 C   0  0  0  0  0  0
    6.5389    1.8579   -1.6373 O   0  0  0  0  0  0
    4.2442    1.8443   -1.3722 N   0  0  0  0  0  0
    3.8614    3.1138   -1.8743 C   0  0  0  0  0  0
    4.1986    4.2610   -1.1231 C   0  0  0  0  0  0
    3.8271    5.5413   -1.5729 C   0  0  0  0  0  0
    3.1202    5.6825   -2.7805 C   0  0  0  0  0  0
    2.7895    4.5443   -3.5394 C   0  0  0  0  0  0
    3.1550    3.2537   -3.0989 C   0  0  0  0  0  0
    2.8068    2.0598   -3.9786 C   0  0  0  0  0  0
    3.9827    1.6205   -4.8585 C   0  0  0  0  0  0
    3.3018    0.9726   -0.8007 C   0  0  0  0  0  0
    1.9649    1.0550   -0.6472 N   0  0  0  0  0  0
   -0.8662    1.0963   -0.4544 C   0  0  0  0  0  0
   -2.2633    1.1498   -0.2835 C   0  0  0  0  0  0
    6.1312   -0.4956   -0.4235 H   0  0  0  0  0  0
   -7.1961    1.6907    0.0655 H   0  0  0  0  0  0
   -6.8965   -0.0415    0.1905 H   0  0  0  0  0  0
   -6.6701    0.9963    1.5976 H   0  0  0  0  0  0
   -4.9952    1.1280   -0.9698 H   0  0  0  0  0  0
   -4.7667    2.1510    0.4546 H   0  0  0  0  0  0
   -2.6619   -1.6092    1.6789 H   0  0  0  0  0  0
   -0.2347   -1.7154    1.3890 H   0  0  0  0  0  0
    2.4306   -2.9488    1.8364 H   0  0  0  0  0  0
    3.8127   -4.0170    1.9940 H   0  0  0  0  0  0
    4.7391    4.1608   -0.1929 H   0  0  0  0  0  0
    4.0842    6.4143   -0.9914 H   0  0  0  0  0  0
    2.8360    6.6648   -3.1281 H   0  0  0  0  0  0
    2.2571    4.6678   -4.4712 H   0  0  0  0  0  0
    2.4647    1.2229   -3.3728 H   0  0  0  0  0  0
    1.9606    2.3207   -4.6151 H   0  0  0  0  0  0
    3.7009    0.7761   -5.4877 H   0  0  0  0  0  0
    4.3075    2.4299   -5.5128 H   0  0  0  0  0  0
    4.8379    1.3139   -4.2563 H   0  0  0  0  0  0
   -0.3983    1.8624   -1.0550 H   0  0  0  0  0  0
   -2.8008    1.9559   -0.7593 H   0  0  0  0  0  0
  1  2  1  0  0  0
  1 32  1  0  0  0
  1 33  1  0  0  0
  1 34  1  0  0  0
  2  3  1  0  0  0
  2 35  1  0  0  0
  2 36  1  0  0  0
  3  4  1  0  0  0
  4 30  1  0  0  0
  4  5  2  0  0  0
  5  6  1  0  0  0
  5 37  1  0  0  0
  6  7  2  0  0  0
  6 38  1  0  0  0
  7  8  1  0  0  0
  7 29  1  0  0  0
  8 28  1  0  0  0
  8  9  2  0  0  0
  9 10  1  0  0  0
 10 11  1  0  0  0
 10 14  2  0  0  0
 11 12  1  0  0  0
 11 13  2  0  0  0
 12 39  1  0  0  0
 12 40  1  0  0  0
 14 27  1  0  0  0
 14 15  1  0  0  0
 15 31  1  0  0  0
 15 16  1  0  0  0
 16 17  2  0  0  0
 16 18  1  0  0  0
 18 19  1  0  0  0
 18 27  1  0  0  0
 19 24  1  0  0  0
 19 20  2  0  0  0
 20 21  1  0  0  0
 20 41  1  0  0  0
 21 22  2  0  0  0
 21 42  1  0  0  0
 22 23  1  0  0  0
 22 43  1  0  0  0
 23 24  2  0  0  0
 23 44  1  0  0  0
 24 25  1  0  0  0
 25 26  1  0  0  0
 25 45  1  0  0  0
 25 46  1  0  0  0
 26 47  1  0  0  0
 26 48  1  0  0  0
 26 49  1  0  0  0
 27 28  2  0  0  0
 29 30  2  0  0  0
 29 50  1  0  0  0
 30 51  1  0  0  0
M  END
$$$$
180
                    3D
 Schrodinger Suite 2021-2.
 48 50  0  0  1  0            999 V2000
   -2.2031    2.6126   -0.3863 C   0  0  0  0  0  0
   -1.8157    1.2718   -0.1437 O   0  0  0  0  0  0
   -0.4074    1.1021   -0.1549 C   0  0  0  0  0  0
   -0.0547   -0.3664    0.1452 C   0  0  1  0  0  0
    1.3938   -0.5545    0.0744 N   0  0  0  0  0  0
    2.0916   -0.8211   -1.0393 C   0  0  0  0  0  0
    1.5769   -0.9426   -2.1513 O   0  0  0  0  0  0
    3.4058   -0.9244   -0.7742 N   0  0  0  0  0  0
    4.4672   -1.1814   -1.6821 C   0  0  0  0  0  0
    5.7575   -1.1706   -1.1091 C   0  0  0  0  0  0
    6.8436   -1.4140   -1.9597 C   0  0  0  0  0  0
    8.2300   -1.4850   -1.8622 N   0  0  0  0  0  0
    8.8689   -1.7537   -3.0490 N   0  0  0  0  0  0
    7.9018   -1.8819   -3.9511 C   0  0  0  0  0  0
    8.1316   -2.1642   -5.3117 N   0  0  0  0  0  0
    7.2763   -3.1762   -5.9168 C   0  0  0  0  0  0
    9.5107   -2.0793   -5.7740 C   0  0  0  0  0  0
    6.6502   -1.6686   -3.3240 C   0  0  0  0  0  0
    5.3318   -1.6577   -3.8401 C   0  0  0  0  0  0
    4.2851   -1.4187   -3.0099 N   0  0  0  0  0  0
   -0.6187   -0.8154    1.4890 C   0  0  0  0  0  0
   -1.8600   -1.4866    1.5376 C   0  0  0  0  0  0
   -2.4005   -1.8976    2.7715 C   0  0  0  0  0  0
   -1.7046   -1.6372    3.9672 C   0  0  0  0  0  0
   -0.4694   -0.9630    3.9281 C   0  0  0  0  0  0
    0.0711   -0.5515    2.6944 C   0  0  0  0  0  0
   -0.5189   -0.9916   -0.6204 H   0  0  0  0  0  0
    8.7688   -1.3487   -1.0187 H   0  0  0  0  0  0
   -3.2900    2.6895   -0.3640 H   0  0  0  0  0  0
   -1.8030    3.2825    0.3759 H   0  0  0  0  0  0
   -1.8611    2.9512   -1.3652 H   0  0  0  0  0  0
   -0.0137    1.3928   -1.1303 H   0  0  0  0  0  0
    0.0508    1.7560    0.5895 H   0  0  0  0  0  0
    1.9003   -0.4736    0.9436 H   0  0  0  0  0  0
    3.6804   -0.7923    0.1878 H   0  0  0  0  0  0
    5.9104   -0.9765   -0.0573 H   0  0  0  0  0  0
    6.8108   -3.8144   -5.1646 H   0  0  0  0  0  0
    6.4906   -2.7015   -6.5042 H   0  0  0  0  0  0
    7.8486   -3.8204   -6.5853 H   0  0  0  0  0  0
    9.9569   -1.1246   -5.4926 H   0  0  0  0  0  0
   10.1104   -2.8839   -5.3475 H   0  0  0  0  0  0
    9.5543   -2.1589   -6.8605 H   0  0  0  0  0  0
    5.1106   -1.8276   -4.8824 H   0  0  0  0  0  0
   -2.4046   -1.6869    0.6263 H   0  0  0  0  0  0
   -3.3503   -2.4109    2.8003 H   0  0  0  0  0  0
   -2.1193   -1.9511    4.9138 H   0  0  0  0  0  0
    0.0630   -0.7589    4.8453 H   0  0  0  0  0  0
    1.0152   -0.0273    2.6815 H   0  0  0  0  0  0
  1  2  1  0  0  0
  1 29  1  0  0  0
  1 30  1  0  0  0
  1 31  1  0  0  0
  2  3  1  0  0  0
  3  4  1  0  0  0
  3 32  1  0  0  0
  3 33  1  0  0  0
  4 27  1  0  0  0
  4  5  1  0  0  0
  4 21  1  0  0  0
  5  6  1  0  0  0
  5 34  1  0  0  0
  6  7  2  0  0  0
  6  8  1  0  0  0
  8  9  1  0  0  0
  8 35  1  0  0  0
  9 20  1  0  0  0
  9 10  2  0  0  0
 10 11  1  0  0  0
 10 36  1  0  0  0
 11 18  2  0  0  0
 11 12  1  0  0  0
 12 28  1  0  0  0
 12 13  1  0  0  0
 13 14  2  0  0  0
 14 15  1  0  0  0
 14 18  1  0  0  0
 15 16  1  0  0  0
 15 17  1  0  0  0
 16 37  1  0  0  0
 16 38  1  0  0  0
 16 39  1  0  0  0
 17 40  1  0  0  0
 17 41  1  0  0  0
 17 42  1  0  0  0
 18 19  1  0  0  0
 19 20  2  0  0  0
 19 43  1  0  0  0
 21 26  1  0  0  0
 21 22  2  0  0  0
 22 23  1  0  0  0
 22 44  1  0  0  0
 23 24  2  0  0  0
 23 45  1  0  0  0
 24 25  1  0  0  0
 24 46  1  0  0  0
 25 26  2  0  0  0
 25 47  1  0  0  0
 26 48  1  0  0  0
M  END
$$$$
181
                    3D
 Schrodinger Suite 2021-2.
 44 46  0  0  1  0            999 V2000
   -1.9674   -4.8769   -5.0490 C   0  0  0  0  0  0
   -1.0833   -3.3328   -5.3970 S   0  0  0  0  0  0
   -0.8742   -2.4565   -3.8734 C   0  0  0  0  0  0
   -1.2754   -3.0128   -2.6394 C   0  0  0  0  0  0
   -1.0912   -2.2878   -1.4459 C   0  0  0  0  0  0
   -0.5072   -1.0039   -1.4743 C   0  0  0  0  0  0
   -0.3038   -0.2295   -0.1819 C   0  0  2  0  0  0
   -1.0435    1.0318   -0.1907 N   0  0  0  0  0  0
   -1.1520    1.8040    0.9760 C   0  0  0  0  0  0
   -1.4588    3.1753    0.8485 C   0  0  0  0  0  0
   -1.5564    3.9604    2.0136 C   0  0  0  0  0  0
   -1.3477    3.3485    3.2638 C   0  0  0  0  0  0
   -1.0505    1.9722    3.2917 C   0  0  0  0  0  0
   -0.9553    1.2130    2.1792 N   0  0  0  0  0  0
    1.1827   -0.0511    0.1173 C   0  0  0  0  0  0
    1.6477    1.2103   -0.1874 O   0  0  0  0  0  0
    2.9600    1.5376    0.0693 C   0  0  0  0  0  0
    3.3052    2.9675   -0.3007 C   0  0  0  0  0  0
    2.1922    3.8230   -0.1436 O   0  0  0  0  0  0
    3.8310    0.6660    0.6142 C   0  0  0  0  0  0
    3.3857   -0.6902    0.9542 C   0  0  0  0  0  0
    4.1542   -1.5166    1.4448 O   0  0  0  0  0  0
    1.9727   -0.9939    0.6754 C   0  0  0  0  0  0
    1.5287   -2.2168    0.9990 O   0  0  0  0  0  0
   -0.1073   -0.4508   -2.7101 C   0  0  0  0  0  0
   -0.2896   -1.1751   -3.9035 C   0  0  0  0  0  0
   -2.1343   -5.4268   -5.9752 H   0  0  0  0  0  0
   -1.3875   -5.5085   -4.3763 H   0  0  0  0  0  0
   -2.9360   -4.6692   -4.5943 H   0  0  0  0  0  0
   -1.7231   -3.9928   -2.5862 H   0  0  0  0  0  0
   -1.3988   -2.7238   -0.5067 H   0  0  0  0  0  0
   -0.7244   -0.8374    0.6202 H   0  0  0  0  0  0
   -1.1014    1.5190   -1.0727 H   0  0  0  0  0  0
   -1.6113    3.6226   -0.1229 H   0  0  0  0  0  0
   -1.7861    5.0136    1.9487 H   0  0  0  0  0  0
   -1.4139    3.9193    4.1780 H   0  0  0  0  0  0
   -0.8846    1.4673    4.2317 H   0  0  0  0  0  0
    4.1227    3.3282    0.3244 H   0  0  0  0  0  0
    3.6423    3.0005   -1.3368 H   0  0  0  0  0  0
    1.4986    3.5198   -0.7095 H   0  0  0  0  0  0
    4.8556    0.9440    0.8145 H   0  0  0  0  0  0
    2.2574   -2.6898    1.3720 H   0  0  0  0  0  0
    0.3445    0.5298   -2.7452 H   0  0  0  0  0  0
    0.0218   -0.7438   -4.8437 H   0  0  0  0  0  0
  1  2  1  0  0  0
  1 27  1  0  0  0
  1 28  1  0  0  0
  1 29  1  0  0  0
  2  3  1  0  0  0
  3 26  1  0  0  0
  3  4  2  0  0  0
  4  5  1  0  0  0
  4 30  1  0  0  0
  5  6  2  0  0  0
  5 31  1  0  0  0
  6  7  1  0  0  0
  6 25  1  0  0  0
  7  8  1  0  0  0
  7 15  1  0  0  0
  7 32  1  0  0  0
  8  9  1  0  0  0
  8 33  1  0  0  0
  9 14  1  0  0  0
  9 10  2  0  0  0
 10 11  1  0  0  0
 10 34  1  0  0  0
 11 12  2  0  0  0
 11 35  1  0  0  0
 12 13  1  0  0  0
 12 36  1  0  0  0
 13 14  2  0  0  0
 13 37  1  0  0  0
 15 23  2  0  0  0
 15 16  1  0  0  0
 16 17  1  0  0  0
 17 18  1  0  0  0
 17 20  2  0  0  0
 18 19  1  0  0  0
 18 38  1  0  0  0
 18 39  1  0  0  0
 19 40  1  0  0  0
 20 21  1  0  0  0
 20 41  1  0  0  0
 21 22  2  0  0  0
 21 23  1  0  0  0
 23 24  1  0  0  0
 24 42  1  0  0  0
 25 26  2  0  0  0
 25 43  1  0  0  0
 26 44  1  0  0  0
M  END
$$$$
182
                    3D
 Schrodinger Suite 2021-2.
 44 47  0  0  1  0            999 V2000
   -5.0692    0.9992   -1.4349 N   0  0  0  0  0  0
   -4.1617    0.4623   -0.6157 C   0  0  0  0  0  0
   -4.4827   -0.1850    0.3792 O   0  0  0  0  0  0
   -2.6843    0.6857   -0.9643 C   0  0  0  0  0  0
   -1.9678   -0.6504   -1.2338 C   0  0  0  0  0  0
   -0.4769   -0.4250   -1.5340 C   0  0  0  0  0  0
    0.1836    0.3186   -0.4624 N   0  0  0  0  0  0
    1.5670    0.2636   -0.3967 C   0  0  0  0  0  0
    2.3769    0.7262   -1.3007 N   0  0  0  0  0  0
    3.7601    0.5908   -1.0950 C   0  0  0  0  0  0
    4.5457    1.0950   -2.0698 N   0  0  0  0  0  0
    5.8814    0.9921   -1.9348 C   0  0  0  0  0  0
    6.4982    0.3828   -0.8286 C   0  0  0  0  0  0
    5.6989   -0.1526    0.2029 C   0  0  0  0  0  0
    6.3786   -0.7932    1.3395 C   0  0  0  0  0  0
    6.7114   -0.0623    2.4997 C   0  0  0  0  0  0
    7.3600   -0.7265    3.5597 C   0  0  0  0  0  0
    7.6887   -2.0352    3.5241 N   0  0  0  0  0  0
    7.3737   -2.7316    2.4116 C   0  0  0  0  0  0
    6.7253   -2.1601    1.2992 C   0  0  0  0  0  0
    4.2852   -0.0421    0.0662 C   0  0  0  0  0  0
    3.2957   -0.5622    1.0834 C   0  0  0  0  0  0
    3.6332   -1.1285    2.1213 O   0  0  0  0  0  0
    2.0006   -0.3617    0.7762 N   0  0  0  0  0  0
   -0.4570    1.5977   -0.1607 C   0  0  0  0  0  0
   -1.9488    1.4247    0.1692 C   0  0  0  0  0  0
    1.3069   -0.6919    1.4312 H   0  0  0  0  0  0
   -6.0524    0.8762   -1.2399 H   0  0  0  0  0  0
   -4.7741    1.5246   -2.2450 H   0  0  0  0  0  0
   -2.6274    1.2961   -1.8675 H   0  0  0  0  0  0
   -2.0616   -1.3115   -0.3706 H   0  0  0  0  0  0
   -2.4349   -1.1681   -2.0726 H   0  0  0  0  0  0
    0.0141   -1.3893   -1.6743 H   0  0  0  0  0  0
   -0.3637    0.1242   -2.4698 H   0  0  0  0  0  0
    6.4780    1.4056   -2.7344 H   0  0  0  0  0  0
    7.5756    0.3258   -0.7741 H   0  0  0  0  0  0
    6.4687    0.9872    2.5787 H   0  0  0  0  0  0
    7.6224   -0.1916    4.4604 H   0  0  0  0  0  0
    7.6466   -3.7765    2.4067 H   0  0  0  0  0  0
    6.4940   -2.7614    0.4322 H   0  0  0  0  0  0
    0.0469    2.0788    0.6791 H   0  0  0  0  0  0
   -0.3410    2.2616   -1.0186 H   0  0  0  0  0  0
   -2.4005    2.4032    0.3379 H   0  0  0  0  0  0
   -2.0449    0.8737    1.1063 H   0  0  0  0  0  0
  1  2  1  0  0  0
  1 28  1  0  0  0
  1 29  1  0  0  0
  2  3  2  0  0  0
  2  4  1  0  0  0
  4 26  1  0  0  0
  4  5  1  0  0  0
  4 30  1  0  0  0
  5  6  1  0  0  0
  5 31  1  0  0  0
  5 32  1  0  0  0
  6  7  1  0  0  0
  6 33  1  0  0  0
  6 34  1  0  0  0
  7  8  1  0  0  0
  7 25  1  0  0  0
  8 24  1  0  0  0
  8  9  2  0  0  0
  9 10  1  0  0  0
 10 21  2  0  0  0
 10 11  1  0  0  0
 11 12  2  0  0  0
 12 13  1  0  0  0
 12 35  1  0  0  0
 13 14  2  0  0  0
 13 36  1  0  0  0
 14 15  1  0  0  0
 14 21  1  0  0  0
 15 20  1  0  0  0
 15 16  2  0  0  0
 16 17  1  0  0  0
 16 37  1  0  0  0
 17 18  2  0  0  0
 17 38  1  0  0  0
 18 19  1  0  0  0
 19 20  2  0  0  0
 19 39  1  0  0  0
 20 40  1  0  0  0
 21 22  1  0  0  0
 22 23  2  0  0  0
 22 24  1  0  0  0
 24 27  1  0  0  0
 25 26  1  0  0  0
 25 41  1  0  0  0
 25 42  1  0  0  0
 26 43  1  0  0  0
 26 44  1  0  0  0
M  END
$$$$
183
                    3D
 Schrodinger Suite 2021-2.
 44 46  0  0  1  0            999 V2000
   -0.2990    3.5172    1.3767 C   0  0  0  0  0  0
    0.0572    2.1478    1.3114 O   0  0  0  0  0  0
   -0.3742    1.5306    0.1080 C   0  0  0  0  0  0
    0.0358    0.0489    0.0961 C   0  0  1  0  0  0
    1.4928   -0.0484    0.0230 N   0  0  0  0  0  0
    2.1755   -1.0777   -0.4985 C   0  0  0  0  0  0
    1.6369   -2.0729   -0.9839 O   0  0  0  0  0  0
    3.5017   -0.8737   -0.4124 N   0  0  0  0  0  0
    4.5499   -1.7069   -0.8854 C   0  0  0  0  0  0
    5.8542   -1.2250   -0.6342 C   0  0  0  0  0  0
    6.9266   -2.0041   -1.0876 C   0  0  0  0  0  0
    8.3186   -1.9565   -1.0828 N   0  0  0  0  0  0
    8.9246   -3.0287   -1.6971 N   0  0  0  0  0  0
    7.9255   -3.8019   -2.1159 C   0  0  0  0  0  0
    8.1362   -4.9840   -2.7871 O   0  0  0  0  0  0
    9.4841   -5.3571   -3.0426 C   0  0  0  0  0  0
    6.7015   -3.2094   -1.7609 C   0  0  0  0  0  0
    5.3756   -3.6436   -1.9825 C   0  0  0  0  0  0
    4.3418   -2.8829   -1.5407 N   0  0  0  0  0  0
   -0.5676   -0.7171    1.2714 C   0  0  0  0  0  0
    0.1314   -0.8681    2.4915 C   0  0  0  0  0  0
   -0.4503   -1.5742    3.5622 C   0  0  0  0  0  0
   -1.7350   -2.1329    3.4236 C   0  0  0  0  0  0
   -2.2935   -2.8119    4.4533 F   0  0  0  0  0  0
   -2.4393   -1.9818    2.2141 C   0  0  0  0  0  0
   -1.8586   -1.2739    1.1438 C   0  0  0  0  0  0
   -0.3704   -0.3849   -0.8199 H   0  0  0  0  0  0
    8.8816   -1.2222   -0.6774 H   0  0  0  0  0  0
    0.0545    3.9429    2.3157 H   0  0  0  0  0  0
    0.1528    4.0815    0.5599 H   0  0  0  0  0  0
   -1.3814    3.6459    1.3349 H   0  0  0  0  0  0
   -1.4591    1.6122    0.0235 H   0  0  0  0  0  0
    0.0546    2.0456   -0.7534 H   0  0  0  0  0  0
    2.0147    0.7270    0.4042 H   0  0  0  0  0  0
    3.7952   -0.0157    0.0306 H   0  0  0  0  0  0
    6.0261   -0.2930   -0.1157 H   0  0  0  0  0  0
    9.5018   -6.3063   -3.5780 H   0  0  0  0  0  0
    9.9912   -4.6166   -3.6631 H   0  0  0  0  0  0
   10.0428   -5.4884   -2.1148 H   0  0  0  0  0  0
    5.1476   -4.5658   -2.4963 H   0  0  0  0  0  0
    1.1151   -0.4408    2.6175 H   0  0  0  0  0  0
    0.0896   -1.6857    4.4910 H   0  0  0  0  0  0
   -3.4255   -2.4090    2.1071 H   0  0  0  0  0  0
   -2.4082   -1.1615    0.2208 H   0  0  0  0  0  0
  1  2  1  0  0  0
  1 29  1  0  0  0
  1 30  1  0  0  0
  1 31  1  0  0  0
  2  3  1  0  0  0
  3  4  1  0  0  0
  3 32  1  0  0  0
  3 33  1  0  0  0
  4 27  1  0  0  0
  4  5  1  0  0  0
  4 20  1  0  0  0
  5  6  1  0  0  0
  5 34  1  0  0  0
  6  7  2  0  0  0
  6  8  1  0  0  0
  8  9  1  0  0  0
  8 35  1  0  0  0
  9 19  1  0  0  0
  9 10  2  0  0  0
 10 11  1  0  0  0
 10 36  1  0  0  0
 11 17  2  0  0  0
 11 12  1  0  0  0
 12 28  1  0  0  0
 12 13  1  0  0  0
 13 14  2  0  0  0
 14 15  1  0  0  0
 14 17  1  0  0  0
 15 16  1  0  0  0
 16 37  1  0  0  0
 16 38  1  0  0  0
 16 39  1  0  0  0
 17 18  1  0  0  0
 18 19  2  0  0  0
 18 40  1  0  0  0
 20 26  1  0  0  0
 20 21  2  0  0  0
 21 22  1  0  0  0
 21 41  1  0  0  0
 22 23  2  0  0  0
 22 42  1  0  0  0
 23 24  1  0  0  0
 23 25  1  0  0  0
 25 26  2  0  0  0
 25 43  1  0  0  0
 26 44  1  0  0  0
M  END
$$$$
184
                    3D
 Schrodinger Suite 2021-2.
 52 54  0  0  1  0            999 V2000
   -0.1819    0.1404   -2.7961 C   0  0  0  0  0  0
   -0.7704   -0.5209   -1.5405 C   0  0  0  0  0  0
   -0.2707    0.0971   -0.2107 C   0  0  2  0  0  0
    1.1864   -0.0285   -0.1176 N   0  0  0  0  0  0
    2.0842    0.9706   -0.1853 C   0  0  0  0  0  0
    1.7750    2.1509   -0.3520 O   0  0  0  0  0  0
    3.5235    0.5680   -0.0080 C   0  0  0  0  0  0
    4.5220    1.5493    0.2022 C   0  0  0  0  0  0
    5.8242    1.2278    0.3654 N   0  0  0  0  0  0
    6.1435   -0.0840    0.3175 C   0  0  0  0  0  0
    7.4820   -0.3488    0.4990 O   0  0  0  0  0  0
    7.9115   -1.6507    0.5408 C   0  0  0  0  0  0
    8.3872   -2.2524   -0.6520 C   0  0  0  0  0  0
    8.8374   -3.5909   -0.6595 C   0  0  0  0  0  0
    8.8004   -4.3020    0.5506 C   0  0  0  0  0  0
    8.3439   -3.7168    1.7203 C   0  0  0  0  0  0
    7.8934   -2.3824    1.7577 C   0  0  0  0  0  0
    7.4009   -1.7616    3.0530 C   0  0  0  0  0  0
    8.4569   -4.8266    2.8009 B   0  0  0  0  0  0
    7.9054   -4.7943    4.0499 O   0  0  0  0  0  0
    8.9270   -5.9694    2.1939 O   0  0  0  0  0  0
    9.2086   -5.7364    0.8073 C   0  0  0  0  0  0
    5.1502   -1.0717    0.0988 C   0  0  0  0  0  0
    3.8490   -0.7478   -0.0634 N   0  0  0  0  0  0
   -0.9545   -0.4660    1.0743 C   0  0  0  0  0  0
   -0.2921    0.0394    2.3743 C   0  0  0  0  0  0
   -2.4583   -0.1287    1.1144 C   0  0  0  0  0  0
   -0.8573   -1.8781    1.0744 O   0  0  0  0  0  0
   -0.5231    1.1583   -0.2464 H   0  0  0  0  0  0
   -0.6162   -0.2902   -3.6985 H   0  0  0  0  0  0
   -0.3858    1.2114   -2.8084 H   0  0  0  0  0  0
    0.8979    0.0029   -2.8565 H   0  0  0  0  0  0
   -1.8543   -0.4390   -1.6045 H   0  0  0  0  0  0
   -0.5456   -1.5878   -1.5664 H   0  0  0  0  0  0
    1.5446   -0.9614    0.0294 H   0  0  0  0  0  0
    4.2831    2.6021    0.2446 H   0  0  0  0  0  0
    8.4008   -1.6814   -1.5688 H   0  0  0  0  0  0
    9.1947   -4.0533   -1.5679 H   0  0  0  0  0  0
    8.0545   -2.0334    3.8821 H   0  0  0  0  0  0
    7.3775   -0.6732    2.9985 H   0  0  0  0  0  0
    6.3939   -2.1141    3.2773 H   0  0  0  0  0  0
    7.9932   -5.6238    4.4935 H   0  0  0  0  0  0
    8.6384   -6.4208    0.1785 H   0  0  0  0  0  0
   10.2715   -5.8721    0.6056 H   0  0  0  0  0  0
    5.3840   -2.1250    0.0552 H   0  0  0  0  0  0
   -0.3023    1.1288    2.4207 H   0  0  0  0  0  0
   -0.8157   -0.3304    3.2567 H   0  0  0  0  0  0
    0.7450   -0.2856    2.4646 H   0  0  0  0  0  0
   -2.6209    0.9485    1.0696 H   0  0  0  0  0  0
   -3.0073   -0.5811    0.2890 H   0  0  0  0  0  0
   -2.9211   -0.4890    2.0342 H   0  0  0  0  0  0
   -1.2819   -2.2087    1.8513 H   0  0  0  0  0  0
  1  2  1  0  0  0
  1 30  1  0  0  0
  1 31  1  0  0  0
  1 32  1  0  0  0
  2  3  1  0  0  0
  2 33  1  0  0  0
  2 34  1  0  0  0
  3 29  1  0  0  0
  3  4  1  0  0  0
  3 25  1  0  0  0
  4  5  1  0  0  0
  4 35  1  0  0  0
  5  6  2  0  0  0
  5  7  1  0  0  0
  7 24  1  0  0  0
  7  8  2  0  0  0
  8  9  1  0  0  0
  8 36  1  0  0  0
  9 10  2  0  0  0
 10 11  1  0  0  0
 10 23  1  0  0  0
 11 12  1  0  0  0
 12 17  1  0  0  0
 12 13  2  0  0  0
 13 14  1  0  0  0
 13 37  1  0  0  0
 14 15  2  0  0  0
 14 38  1  0  0  0
 15 22  1  0  0  0
 15 16  1  0  0  0
 16 17  2  0  0  0
 16 19  1  0  0  0
 17 18  1  0  0  0
 18 39  1  0  0  0
 18 40  1  0  0  0
 18 41  1  0  0  0
 19 20  1  0  0  0
 19 21  1  0  0  0
 20 42  1  0  0  0
 21 22  1  0  0  0
 22 43  1  0  0  0
 22 44  1  0  0  0
 23 24  2  0  0  0
 23 45  1  0  0  0
 25 26  1  0  0  0
 25 27  1  0  0  0
 25 28  1  0  0  0
 26 46  1  0  0  0
 26 47  1  0  0  0
 26 48  1  0  0  0
 27 49  1  0  0  0
 27 50  1  0  0  0
 27 51  1  0  0  0
 28 52  1  0  0  0
M  END
$$$$
185
                    3D
 Schrodinger Suite 2021-2.
 63 66  0  0  1  0            999 V2000
   -2.7528    0.6404   -0.9550 C   0  0  0  0  0  0
   -2.0743    1.3350    0.2367 C   0  0  0  0  0  0
   -0.6062    1.2880    0.1407 N   0  0  0  0  0  0
    0.0356    2.5959   -0.0836 C   0  0  0  0  0  0
    0.0219    3.0020   -1.5648 C   0  0  0  0  0  0
    0.0618    0.1387    0.4247 C   0  0  0  0  0  0
   -0.4981   -0.8888    0.8085 O   0  0  0  0  0  0
    1.5533    0.1147    0.2628 C   0  0  0  0  0  0
    2.3786   -0.0493    1.3941 C   0  0  0  0  0  0
    3.7790   -0.0834    1.2525 C   0  0  0  0  0  0
    4.3737    0.0321   -0.0228 C   0  0  0  0  0  0
    5.8997   -0.0111   -0.1490 C   0  0  2  0  0  0
    6.5213    1.3987   -0.1082 C   0  0  0  0  0  0
    5.9963    2.3859   -0.9767 C   0  0  0  0  0  0
    6.5032    3.6951   -0.9895 C   0  0  0  0  0  0
    7.5589    4.0437   -0.1352 C   0  0  0  0  0  0
    8.1170    3.0792    0.7247 C   0  0  0  0  0  0
    9.1901    3.4608    1.5567 C   0  0  0  0  0  0
    9.7856    2.5264    2.4198 C   0  0  0  0  0  0
    9.3089    1.2059    2.4490 C   0  0  0  0  0  0
    8.2367    0.8193    1.6228 C   0  0  0  0  0  0
    7.6124    1.7472    0.7476 C   0  0  0  0  0  0
    6.3588   -0.8364   -1.3120 N   0  3  0  0  0  0
    5.9269   -2.2609   -1.2158 C   0  0  0  0  0  0
    6.3072   -3.0549   -2.4777 C   0  0  0  0  0  0
    7.7561   -2.9560   -2.7403 N   0  3  0  0  0  0
    8.2044   -1.5542   -2.8499 C   0  0  0  0  0  0
    7.8217   -0.7537   -1.5917 C   0  0  0  0  0  0
    3.5410    0.1709   -1.1576 C   0  0  0  0  0  0
    2.1412    0.2077   -1.0161 C   0  0  0  0  0  0
    5.8980   -0.4467   -2.1220 H   0  0  0  0  0  0
    8.2551   -3.3982   -1.9810 H   0  0  0  0  0  0
    7.9734   -3.4432   -3.5987 H   0  0  0  0  0  0
   -3.8373    0.7175   -0.8775 H   0  0  0  0  0  0
   -2.4556    1.0963   -1.8994 H   0  0  0  0  0  0
   -2.5025   -0.4196   -1.0028 H   0  0  0  0  0  0
   -2.4285    2.3654    0.2817 H   0  0  0  0  0  0
   -2.4034    0.8760    1.1706 H   0  0  0  0  0  0
   -0.4754    3.3598    0.5034 H   0  0  0  0  0  0
    1.0600    2.6173    0.2880 H   0  0  0  0  0  0
    0.5203    3.9613   -1.7044 H   0  0  0  0  0  0
    0.5291    2.2740   -2.1949 H   0  0  0  0  0  0
   -0.9979    3.1080   -1.9351 H   0  0  0  0  0  0
    1.9406   -0.1399    2.3779 H   0  0  0  0  0  0
    4.3949   -0.1966    2.1329 H   0  0  0  0  0  0
    6.2089   -0.5653    0.7311 H   0  0  0  0  0  0
    5.1902    2.1543   -1.6539 H   0  0  0  0  0  0
    6.0813    4.4332   -1.6558 H   0  0  0  0  0  0
    7.9433    5.0534   -0.1497 H   0  0  0  0  0  0
    9.5654    4.4738    1.5340 H   0  0  0  0  0  0
   10.6082    2.8213    3.0548 H   0  0  0  0  0  0
    9.7684    0.4841    3.1081 H   0  0  0  0  0  0
    7.9356   -0.2118    1.6916 H   0  0  0  0  0  0
    6.3869   -2.7192   -0.3387 H   0  0  0  0  0  0
    4.8490   -2.3343   -1.0738 H   0  0  0  0  0  0
    6.0374   -4.1050   -2.3613 H   0  0  0  0  0  0
    5.7581   -2.6781   -3.3418 H   0  0  0  0  0  0
    9.2845   -1.5353   -2.9981 H   0  0  0  0  0  0
    7.7544   -1.1032   -3.7354 H   0  0  0  0  0  0
    8.1333    0.2784   -1.7505 H   0  0  0  0  0  0
    8.3772   -1.1247   -0.7289 H   0  0  0  0  0  0
    3.9691    0.2448   -2.1462 H   0  0  0  0  0  0
    1.5213    0.2950   -1.8960 H   0  0  0  0  0  0
  1  2  1  0  0  0
  1 34  1  0  0  0
  1 35  1  0  0  0
  1 36  1  0  0  0
  2  3  1  0  0  0
  2 37  1  0  0  0
  2 38  1  0  0  0
  3  4  1  0  0  0
  3  6  1  0  0  0
  4  5  1  0  0  0
  4 39  1  0  0  0
  4 40  1  0  0  0
  5 41  1  0  0  0
  5 42  1  0  0  0
  5 43  1  0  0  0
  6  7  2  0  0  0
  6  8  1  0  0  0
  8 30  1  0  0  0
  8  9  2  0  0  0
  9 10  1  0  0  0
  9 44  1  0  0  0
 10 11  2  0  0  0
 10 45  1  0  0  0
 11 12  1  0  0  0
 11 29  1  0  0  0
 12 13  1  0  0  0
 12 23  1  0  0  0
 12 46  1  0  0  0
 13 22  1  0  0  0
 13 14  2  0  0  0
 14 15  1  0  0  0
 14 47  1  0  0  0
 15 16  2  0  0  0
 15 48  1  0  0  0
 16 17  1  0  0  0
 16 49  1  0  0  0
 17 22  2  0  0  0
 17 18  1  0  0  0
 18 19  2  0  0  0
 18 50  1  0  0  0
 19 20  1  0  0  0
 19 51  1  0  0  0
 20 21  2  0  0  0
 20 52  1  0  0  0
 21 22  1  0  0  0
 21 53  1  0  0  0
 23 31  1  0  0  0
 23 28  1  0  0  0
 23 24  1  0  0  0
 24 25  1  0  0  0
 24 54  1  0  0  0
 24 55  1  0  0  0
 25 26  1  0  0  0
 25 56  1  0  0  0
 25 57  1  0  0  0
 26 32  1  0  0  0
 26 33  1  0  0  0
 26 27  1  0  0  0
 27 28  1  0  0  0
 27 58  1  0  0  0
 27 59  1  0  0  0
 28 60  1  0  0  0
 28 61  1  0  0  0
 29 30  2  0  0  0
 29 62  1  0  0  0
 30 63  1  0  0  0
M  CHG  2  23   1  26   1
M  END
$$$$
186
                    3D
 Schrodinger Suite 2021-2.
 51 53  0  0  1  0            999 V2000
   -3.4245    5.4466   -2.2126 C   0  0  0  0  0  0
   -3.4002    5.3237   -0.3784 S   0  0  0  0  0  0
   -2.7523    6.5335    0.1519 O   0  0  0  0  0  0
   -4.7545    4.9670    0.0727 O   0  0  0  0  0  0
   -2.3233    3.9311   -0.0637 C   0  0  0  0  0  0
   -2.8621    2.6319   -0.0057 C   0  0  0  0  0  0
   -2.0077    1.5344    0.2122 C   0  0  0  0  0  0
   -0.6160    1.7215    0.3535 C   0  0  0  0  0  0
    0.1723    0.5832    0.5798 N   0  0  0  0  0  0
    1.5364    0.3784    0.3225 C   0  0  0  0  0  0
    2.3334    1.2400   -0.2879 N   0  0  0  0  0  0
    3.5603    0.6535   -0.3184 N   0  0  0  0  0  0
    4.6807    1.3185   -1.0051 C   0  0  0  0  0  0
    4.6916    0.8548   -2.4770 C   0  0  0  0  0  0
    3.5199    1.2782   -3.2621 C   0  0  0  0  0  0
    2.5996    1.6107   -3.8793 N   0  0  0  0  0  0
    4.5739    2.8708   -0.9300 C   0  0  0  0  0  0
    4.6905    3.4127    0.5086 C   0  0  0  0  0  0
    6.0025    2.9612    1.1668 C   0  0  0  0  0  0
    6.1642    1.4355    1.0997 C   0  0  0  0  0  0
    6.0348    0.9326   -0.3506 C   0  0  0  0  0  0
    3.5101   -0.6272    0.2134 C   0  0  0  0  0  0
    2.2340   -0.8139    0.6586 C   0  0  0  0  0  0
    1.6854   -2.0547    1.3012 C   0  0  0  0  0  0
    2.5720   -2.8019    1.9649 N   0  0  0  0  0  0
    0.4891   -2.3334    1.2520 O   0  0  0  0  0  0
   -0.0873    3.0335    0.2926 C   0  0  0  0  0  0
   -0.9371    4.1354    0.0748 C   0  0  0  0  0  0
   -4.0665    6.2747   -2.5121 H   0  0  0  0  0  0
   -2.4131    5.6211   -2.5790 H   0  0  0  0  0  0
   -3.8084    4.5180   -2.6347 H   0  0  0  0  0  0
   -3.9232    2.4713   -0.1257 H   0  0  0  0  0  0
   -2.4277    0.5401    0.2625 H   0  0  0  0  0  0
   -0.3302   -0.2389    0.8842 H   0  0  0  0  0  0
    5.5711    1.2461   -2.9890 H   0  0  0  0  0  0
    4.7528   -0.2324   -2.5351 H   0  0  0  0  0  0
    5.3688    3.3122   -1.5330 H   0  0  0  0  0  0
    3.6452    3.2268   -1.3773 H   0  0  0  0  0  0
    4.6409    4.5018    0.4974 H   0  0  0  0  0  0
    3.8452    3.0770    1.1099 H   0  0  0  0  0  0
    6.8437    3.4377    0.6616 H   0  0  0  0  0  0
    6.0353    3.2956    2.2041 H   0  0  0  0  0  0
    7.1362    1.1511    1.5035 H   0  0  0  0  0  0
    5.4182    0.9575    1.7349 H   0  0  0  0  0  0
    6.1919   -0.1452   -0.3850 H   0  0  0  0  0  0
    6.8506    1.3572   -0.9376 H   0  0  0  0  0  0
    4.3640   -1.2873    0.2301 H   0  0  0  0  0  0
    2.2652   -3.6407    2.4357 H   0  0  0  0  0  0
    3.5421   -2.5251    1.9990 H   0  0  0  0  0  0
    0.9665    3.2219    0.4249 H   0  0  0  0  0  0
   -0.5213    5.1307    0.0218 H   0  0  0  0  0  0
  1  2  1  0  0  0
  1 29  1  0  0  0
  1 30  1  0  0  0
  1 31  1  0  0  0
  2  3  2  0  0  0
  2  4  2  0  0  0
  2  5  1  0  0  0
  5 28  1  0  0  0
  5  6  2  0  0  0
  6  7  1  0  0  0
  6 32  1  0  0  0
  7  8  2  0  0  0
  7 33  1  0  0  0
  8  9  1  0  0  0
  8 27  1  0  0  0
  9 10  1  0  0  0
  9 34  1  0  0  0
 10 23  1  0  0  0
 10 11  2  0  0  0
 11 12  1  0  0  0
 12 13  1  0  0  0
 12 22  1  0  0  0
 13 21  1  0  0  0
 13 14  1  0  0  0
 13 17  1  0  0  0
 14 15  1  0  0  0
 14 35  1  0  0  0
 14 36  1  0  0  0
 15 16  3  0  0  0
 17 18  1  0  0  0
 17 37  1  0  0  0
 17 38  1  0  0  0
 18 19  1  0  0  0
 18 39  1  0  0  0
 18 40  1  0  0  0
 19 20  1  0  0  0
 19 41  1  0  0  0
 19 42  1  0  0  0
 20 21  1  0  0  0
 20 43  1  0  0  0
 20 44  1  0  0  0
 21 45  1  0  0  0
 21 46  1  0  0  0
 22 23  2  0  0  0
 22 47  1  0  0  0
 23 24  1  0  0  0
 24 25  1  0  0  0
 24 26  2  0  0  0
 25 48  1  0  0  0
 25 49  1  0  0  0
 27 28  2  0  0  0
 27 50  1  0  0  0
 28 51  1  0  0  0
M  END
$$$$
187
                    3D
 Schrodinger Suite 2021-2.
 44 44  0  0  1  0            999 V2000
   -4.5353   -2.4848    0.0000 C   0  0  0  0  0  0
   -5.1909   -1.2249   -0.0001 O   0  0  0  0  0  0
   -4.4164   -0.0823    0.0005 C   0  0  0  0  0  0
   -2.9972   -0.0890    0.0009 C   0  0  0  0  0  0
   -2.2608    1.1195    0.0021 C   0  0  0  0  0  0
   -0.7862    1.1555    0.0015 C   0  0  0  0  0  0
    0.0427    0.0922   -0.0098 C   0  0  0  0  0  0
    1.5055    0.2582   -0.0097 C   0  0  0  0  0  0
    2.0848    1.3464   -0.0026 O   0  0  0  0  0  0
    2.1272   -0.9352   -0.0198 O   0  0  0  0  0  0
    3.5490   -1.0014   -0.0285 C   0  0  0  0  0  0
    4.0104   -2.4617   -0.0410 C   0  0  0  0  0  0
    3.1818   -3.3753   -0.0705 O   0  0  0  0  0  0
    5.3483   -2.6323   -0.0169 N   0  0  0  0  0  0
    6.0292   -3.7949   -0.0184 C   0  0  0  0  0  0
    5.5290   -4.9215   -0.0490 O   0  0  0  0  0  0
    7.3527   -3.5773    0.0227 N   0  0  0  0  0  0
    8.3809   -4.6145    0.0406 C   0  0  0  0  0  0
    8.5712   -5.1618    1.4643 C   0  0  0  0  0  0
    9.6896   -4.0465   -0.5237 C   0  0  0  0  0  0
   -2.9610    2.3435    0.0019 C   0  0  0  0  0  0
   -4.3669    2.3643    0.0012 C   0  0  0  0  0  0
   -5.0911    1.1580    0.0007 C   0  0  0  0  0  0
   -6.4561    1.1986    0.0003 O   0  0  0  0  0  0
   -5.2819   -3.2789   -0.0004 H   0  0  0  0  0  0
   -3.9181   -2.6132   -0.8902 H   0  0  0  0  0  0
   -3.9187   -2.6134    0.8907 H   0  0  0  0  0  0
   -2.4644   -1.0257    0.0008 H   0  0  0  0  0  0
   -0.3542    2.1466    0.0117 H   0  0  0  0  0  0
   -0.3387   -0.9175   -0.0200 H   0  0  0  0  0  0
    3.9454   -0.4959   -0.9112 H   0  0  0  0  0  0
    3.9558   -0.5061    0.8554 H   0  0  0  0  0  0
    5.9036   -1.7899    0.0077 H   0  0  0  0  0  0
    7.6764   -2.6213    0.0451 H   0  0  0  0  0  0
    8.0680   -5.4345   -0.6083 H   0  0  0  0  0  0
    9.3384   -5.9361    1.4855 H   0  0  0  0  0  0
    8.8745   -4.3747    2.1557 H   0  0  0  0  0  0
    7.6509   -5.6047    1.8461 H   0  0  0  0  0  0
   10.4681   -4.8095   -0.5487 H   0  0  0  0  0  0
    9.5540   -3.6829   -1.5428 H   0  0  0  0  0  0
   10.0574   -3.2170    0.0815 H   0  0  0  0  0  0
   -2.4204    3.2791    0.0020 H   0  0  0  0  0  0
   -4.8878    3.3106    0.0011 H   0  0  0  0  0  0
   -6.8007    2.0784    0.0003 H   0  0  0  0  0  0
  1  2  1  0  0  0
  1 25  1  0  0  0
  1 26  1  0  0  0
  1 27  1  0  0  0
  2  3  1  0  0  0
  3 23  1  0  0  0
  3  4  2  0  0  0
  4  5  1  0  0  0
  4 28  1  0  0  0
  5  6  1  0  0  0
  5 21  2  0  0  0
  6  7  2  0  0  0
  6 29  1  0  0  0
  7  8  1  0  0  0
  7 30  1  0  0  0
  8  9  2  0  0  0
  8 10  1  0  0  0
 10 11  1  0  0  0
 11 12  1  0  0  0
 11 31  1  0  0  0
 11 32  1  0  0  0
 12 13  2  0  0  0
 12 14  1  0  0  0
 14 15  1  0  0  0
 14 33  1  0  0  0
 15 16  2  0  0  0
 15 17  1  0  0  0
 17 18  1  0  0  0
 17 34  1  0  0  0
 18 19  1  0  0  0
 18 20  1  0  0  0
 18 35  1  0  0  0
 19 36  1  0  0  0
 19 37  1  0  0  0
 19 38  1  0  0  0
 20 39  1  0  0  0
 20 40  1  0  0  0
 20 41  1  0  0  0
 21 22  1  0  0  0
 21 42  1  0  0  0
 22 23  2  0  0  0
 22 43  1  0  0  0
 23 24  1  0  0  0
 24 44  1  0  0  0
M  END
$$$$
188
                    3D
 Schrodinger Suite 2021-2.
 48 50  0  0  1  0            999 V2000
   -3.7856    2.9305   -7.0251 C   0  0  0  0  0  0
   -3.3107    2.4911   -5.7607 O   0  0  0  0  0  0
   -4.2352    2.2587   -4.7652 C   0  0  0  0  0  0
   -5.6321    2.4288   -4.9208 C   0  0  0  0  0  0
   -6.5050    2.1727   -3.8469 C   0  0  0  0  0  0
   -6.0156    1.7400   -2.5985 C   0  0  0  0  0  0
   -6.8606    1.5043   -1.5706 N   0  0  0  0  0  0
   -6.3311    1.1027   -0.4152 C   0  0  0  0  0  0
   -5.0391    0.8988   -0.1596 N   0  0  0  0  0  0
   -4.1600    1.1198   -1.1667 C   0  0  0  0  0  0
   -2.7953    0.8769   -0.9134 N   0  0  0  0  0  0
   -2.3260   -0.3968   -1.4519 C   0  0  0  0  0  0
   -0.7890   -0.4582   -1.4514 C   0  0  0  0  0  0
   -0.2127   -0.1804   -0.0458 C   0  0  0  0  0  0
    1.3291   -0.1795   -0.0204 C   0  0  0  0  0  0
    1.9581   -1.5564   -0.2850 C   0  0  0  0  0  0
    3.4112   -1.4818   -0.1532 N   0  0  1  0  0  0
    4.3230   -2.9348   -0.2956 S   0  0  0  0  0  0
    5.8955   -2.2698   -0.1019 N   0  0  0  0  0  0
    4.0213   -3.7842    0.8665 O   0  0  0  0  0  0
    4.1846   -3.4325   -1.6724 O   0  0  0  0  0  0
   -0.7746    1.1589    0.4729 C   0  0  0  0  0  0
   -2.3117    1.1767    0.4330 C   0  0  0  0  0  0
   -4.6141    1.5587   -2.4411 C   0  0  0  0  0  0
   -3.7396    1.8257   -3.5200 C   0  0  0  0  0  0
   -2.9404    3.0680   -7.6991 H   0  0  0  0  0  0
   -4.4520    2.1957   -7.4786 H   0  0  0  0  0  0
   -4.3029    3.8876   -6.9463 H   0  0  0  0  0  0
   -6.0606    2.7587   -5.8548 H   0  0  0  0  0  0
   -7.5672    2.3129   -3.9845 H   0  0  0  0  0  0
   -7.0200    0.9209    0.3963 H   0  0  0  0  0  0
   -2.7303   -1.2075   -0.8442 H   0  0  0  0  0  0
   -2.6994   -0.5487   -2.4649 H   0  0  0  0  0  0
   -0.4749   -1.4383   -1.8091 H   0  0  0  0  0  0
   -0.3980    0.2713   -2.1620 H   0  0  0  0  0  0
   -0.5604   -0.9662    0.6266 H   0  0  0  0  0  0
    1.7084    0.5456   -0.7418 H   0  0  0  0  0  0
    1.6627    0.1669    0.9591 H   0  0  0  0  0  0
    1.5745   -2.2928    0.4222 H   0  0  0  0  0  0
    1.7171   -1.9108   -1.2870 H   0  0  0  0  0  0
    3.8196   -0.7184   -0.6918 H   0  0  0  0  0  0
    6.3517   -2.5961    0.7499 H   0  0  0  0  0  0
    6.4680   -2.3760   -0.9391 H   0  0  0  0  0  0
   -0.4360    1.3398    1.4935 H   0  0  0  0  0  0
   -0.3871    1.9805   -0.1317 H   0  0  0  0  0  0
   -2.6791    2.1540    0.7490 H   0  0  0  0  0  0
   -2.7064    0.4409    1.1351 H   0  0  0  0  0  0
   -2.6726    1.7039   -3.4050 H   0  0  0  0  0  0
  1  2  1  0  0  0
  1 26  1  0  0  0
  1 27  1  0  0  0
  1 28  1  0  0  0
  2  3  1  0  0  0
  3 25  1  0  0  0
  3  4  2  0  0  0
  4  5  1  0  0  0
  4 29  1  0  0  0
  5  6  2  0  0  0
  5 30  1  0  0  0
  6 24  1  0  0  0
  6  7  1  0  0  0
  7  8  2  0  0  0
  8  9  1  0  0  0
  8 31  1  0  0  0
  9 10  2  0  0  0
 10 11  1  0  0  0
 10 24  1  0  0  0
 11 23  1  0  0  0
 11 12  1  0  0  0
 12 13  1  0  0  0
 12 32  1  0  0  0
 12 33  1  0  0  0
 13 14  1  0  0  0
 13 34  1  0  0  0
 13 35  1  0  0  0
 14 15  1  0  0  0
 14 22  1  0  0  0
 14 36  1  0  0  0
 15 16  1  0  0  0
 15 37  1  0  0  0
 15 38  1  0  0  0
 16 17  1  0  0  0
 16 39  1  0  0  0
 16 40  1  0  0  0
 17 18  1  0  0  0
 17 41  1  0  0  0
 18 19  1  0  0  0
 18 20  2  0  0  0
 18 21  2  0  0  0
 19 42  1  0  0  0
 19 43  1  0  0  0
 22 23  1  0  0  0
 22 44  1  0  0  0
 22 45  1  0  0  0
 23 46  1  0  0  0
 23 47  1  0  0  0
 24 25  2  0  0  0
 25 48  1  0  0  0
M  END
$$$$
189
                    3D
 Schrodinger Suite 2021-2.
 49 50  0  0  1  0            999 V2000
    2.0452    2.9016   -1.1214 C   0  0  0  0  0  0
    0.8945    2.0632   -1.6477 C   0  0  0  0  0  0
   -0.0472    1.4052   -0.9305 C   0  0  0  0  0  0
   -0.1451    1.4462    0.5977 C   0  0  2  0  0  0
    0.4127    0.1633    1.2663 C   0  0  0  0  0  0
    1.9025   -0.0684    1.0102 C   0  0  0  0  0  0
    2.7501    0.2429    1.8471 O   0  0  0  0  0  0
    2.1448   -0.6102   -0.1939 O   0  0  0  0  0  0
    3.4806   -0.8022   -0.6274 C   0  0  0  0  0  0
    3.4847   -1.0061   -2.1462 C   0  0  0  0  0  0
    4.8873   -1.1926   -2.6902 C   0  0  0  0  0  0
    5.4239   -2.4880   -2.8413 C   0  0  0  0  0  0
    6.7284   -2.6592   -3.3436 C   0  0  0  0  0  0
    7.5033   -1.5365   -3.6966 C   0  0  0  0  0  0
    8.7677   -1.7134   -4.1820 O   0  0  0  0  0  0
    6.9694   -0.2387   -3.5457 C   0  0  0  0  0  0
    7.7112    0.8568   -3.8835 O   0  0  0  0  0  0
    5.6638   -0.0691   -3.0432 C   0  0  0  0  0  0
   -1.6075    1.6684    0.9893 C   0  0  0  0  0  0
   -1.9295    2.2295    2.3295 C   0  0  0  0  0  0
   -3.0756    2.4882    2.7047 O   0  0  0  0  0  0
   -0.8360    2.4248    3.0934 O   0  0  0  0  0  0
   -0.9716    2.9526    4.4018 C   0  0  0  0  0  0
   -2.6177    1.4494    0.1226 C   0  0  0  0  0  0
   -2.4438    0.9686   -1.1504 O   0  0  0  0  0  0
   -1.1700    0.5803   -1.5739 C   0  0  1  0  0  0
   -1.0933    0.5638   -2.9816 O   0  0  0  0  0  0
    0.4176    2.3068    0.9544 H   0  0  0  0  0  0
   -1.0275   -0.4516   -1.2514 H   0  0  0  0  0  0
    2.9620    2.6176   -1.6384 H   0  0  0  0  0  0
    1.8592    3.9573   -1.3186 H   0  0  0  0  0  0
    2.2279    2.7748   -0.0563 H   0  0  0  0  0  0
    0.8647    2.0211   -2.7260 H   0  0  0  0  0  0
    0.2647    0.2075    2.3452 H   0  0  0  0  0  0
   -0.1402   -0.7106    0.9214 H   0  0  0  0  0  0
    4.0889    0.0680   -0.3744 H   0  0  0  0  0  0
    3.9110   -1.6660   -0.1195 H   0  0  0  0  0  0
    2.8768   -1.8729   -2.4086 H   0  0  0  0  0  0
    3.0242   -0.1476   -2.6373 H   0  0  0  0  0  0
    4.8376   -3.3542   -2.5715 H   0  0  0  0  0  0
    7.1319   -3.6549   -3.4564 H   0  0  0  0  0  0
    9.0197   -2.6227   -4.2327 H   0  0  0  0  0  0
    8.5673    0.6244   -4.2102 H   0  0  0  0  0  0
    5.2582    0.9256   -2.9265 H   0  0  0  0  0  0
    0.0094    3.0408    4.8684 H   0  0  0  0  0  0
   -1.4271    3.9433    4.3764 H   0  0  0  0  0  0
   -1.5865    2.3002    5.0228 H   0  0  0  0  0  0
   -3.6625    1.6232    0.3371 H   0  0  0  0  0  0
   -1.6223   -0.1549   -3.2926 H   0  0  0  0  0  0
  1  2  1  0  0  0
  1 30  1  0  0  0
  1 31  1  0  0  0
  1 32  1  0  0  0
  2  3  2  0  0  0
  2 33  1  0  0  0
  3 26  1  0  0  0
  3  4  1  0  0  0
  4 28  1  0  0  0
  4  5  1  0  0  0
  4 19  1  0  0  0
  5  6  1  0  0  0
  5 34  1  0  0  0
  5 35  1  0  0  0
  6  7  2  0  0  0
  6  8  1  0  0  0
  8  9  1  0  0  0
  9 10  1  0  0  0
  9 36  1  0  0  0
  9 37  1  0  0  0
 10 11  1  0  0  0
 10 38  1  0  0  0
 10 39  1  0  0  0
 11 18  1  0  0  0
 11 12  2  0  0  0
 12 13  1  0  0  0
 12 40  1  0  0  0
 13 14  2  0  0  0
 13 41  1  0  0  0
 14 15  1  0  0  0
 14 16  1  0  0  0
 15 42  1  0  0  0
 16 17  1  0  0  0
 16 18  2  0  0  0
 17 43  1  0  0  0
 18 44  1  0  0  0
 19 20  1  0  0  0
 19 24  2  0  0  0
 20 21  2  0  0  0
 20 22  1  0  0  0
 22 23  1  0  0  0
 23 45  1  0  0  0
 23 46  1  0  0  0
 23 47  1  0  0  0
 24 25  1  0  0  0
 24 48  1  0  0  0
 25 26  1  0  0  0
 26 29  1  0  0  0
 26 27  1  0  0  0
 27 49  1  0  0  0
M  END
$$$$
190
                    3D
 Schrodinger Suite 2021-2.
 49 50  0  0  1  0            999 V2000
   -0.8204    3.9538   -1.0176 C   0  0  0  0  0  0
   -0.3059    2.5169   -1.1554 C   0  0  0  0  0  0
   -0.2275    1.7878    0.1973 C   0  0  0  0  0  0
    0.2251    0.3183    0.0913 C   0  0  0  0  0  0
    1.6728    0.1489   -0.3821 C   0  0  0  0  0  0
    2.5677    0.8542    0.0865 O   0  0  0  0  0  0
    1.8883   -0.7975   -1.3063 N   0  0  0  0  0  0
    3.1818   -1.0547   -1.7925 N   0  0  0  0  0  0
    3.5178   -1.9440   -2.7580 C   0  0  0  0  0  0
    2.4035   -2.8920   -3.5848 S   0  0  0  0  0  0
    4.8739   -1.8920   -2.8895 N   0  0  0  0  0  0
    5.7196   -2.5676   -3.7024 C   0  0  0  0  0  0
    5.3888   -3.4170   -4.5326 O   0  0  0  0  0  0
    7.2078   -2.2014   -3.5251 C   0  0  0  0  0  0
    7.5224   -0.7796   -3.9998 C   0  0  0  0  0  0
    8.4104    0.0151   -3.2416 C   0  0  0  0  0  0
    8.7290    1.3240   -3.6524 C   0  0  0  0  0  0
    8.1624    1.8513   -4.8279 C   0  0  0  0  0  0
    7.2793    1.0673   -5.5936 C   0  0  0  0  0  0
    6.9616   -0.2419   -5.1837 C   0  0  0  0  0  0
    8.1452   -3.2569   -4.1150 C   0  0  0  0  0  0
    8.7580   -4.2003   -3.2605 C   0  0  0  0  0  0
    9.6274   -5.1777   -3.7819 C   0  0  0  0  0  0
    9.8915   -5.2211   -5.1638 C   0  0  0  0  0  0
    9.2839   -4.2871   -6.0238 C   0  0  0  0  0  0
    8.4147   -3.3094   -5.5024 C   0  0  0  0  0  0
   -0.8643    4.4452   -1.9897 H   0  0  0  0  0  0
   -1.8228    3.9747   -0.5893 H   0  0  0  0  0  0
   -0.1681    4.5455   -0.3748 H   0  0  0  0  0  0
   -0.9615    1.9650   -1.8300 H   0  0  0  0  0  0
    0.6764    2.5371   -1.6282 H   0  0  0  0  0  0
    0.4348    2.3334    0.8711 H   0  0  0  0  0  0
   -1.2112    1.8110    0.6679 H   0  0  0  0  0  0
    0.1408   -0.1554    1.0698 H   0  0  0  0  0  0
   -0.4502   -0.2264   -0.5705 H   0  0  0  0  0  0
    1.1929   -1.4019   -1.7206 H   0  0  0  0  0  0
    3.8679   -0.4913   -1.3103 H   0  0  0  0  0  0
    5.3305   -1.2334   -2.2755 H   0  0  0  0  0  0
    7.3775   -2.2060   -2.4469 H   0  0  0  0  0  0
    8.8559   -0.3786   -2.3396 H   0  0  0  0  0  0
    9.4103    1.9227   -3.0661 H   0  0  0  0  0  0
    8.4071    2.8548   -5.1436 H   0  0  0  0  0  0
    6.8468    1.4690   -6.4982 H   0  0  0  0  0  0
    6.2875   -0.8296   -5.7896 H   0  0  0  0  0  0
    8.5632   -4.1800   -2.1982 H   0  0  0  0  0  0
   10.0914   -5.8952   -3.1213 H   0  0  0  0  0  0
   10.5580   -5.9710   -5.5637 H   0  0  0  0  0  0
    9.4830   -4.3210   -7.0848 H   0  0  0  0  0  0
    7.9532   -2.6054   -6.1779 H   0  0  0  0  0  0
  1  2  1  0  0  0
  1 27  1  0  0  0
  1 28  1  0  0  0
  1 29  1  0  0  0
  2  3  1  0  0  0
  2 30  1  0  0  0
  2 31  1  0  0  0
  3  4  1  0  0  0
  3 32  1  0  0  0
  3 33  1  0  0  0
  4  5  1  0  0  0
  4 34  1  0  0  0
  4 35  1  0  0  0
  5  6  2  0  0  0
  5  7  1  0  0  0
  7  8  1  0  0  0
  7 36  1  0  0  0
  8  9  1  0  0  0
  8 37  1  0  0  0
  9 10  2  0  0  0
  9 11  1  0  0  0
 11 12  1  0  0  0
 11 38  1  0  0  0
 12 13  2  0  0  0
 12 14  1  0  0  0
 14 15  1  0  0  0
 14 21  1  0  0  0
 14 39  1  0  0  0
 15 20  1  0  0  0
 15 16  2  0  0  0
 16 17  1  0  0  0
 16 40  1  0  0  0
 17 18  2  0  0  0
 17 41  1  0  0  0
 18 19  1  0  0  0
 18 42  1  0  0  0
 19 20  2  0  0  0
 19 43  1  0  0  0
 20 44  1  0  0  0
 21 26  1  0  0  0
 21 22  2  0  0  0
 22 23  1  0  0  0
 22 45  1  0  0  0
 23 24  2  0  0  0
 23 46  1  0  0  0
 24 25  1  0  0  0
 24 47  1  0  0  0
 25 26  2  0  0  0
 25 48  1  0  0  0
 26 49  1  0  0  0
M  END
$$$$
191
                    3D
 Schrodinger Suite 2021-2.
 57 60  0  0  1  0            999 V2000
   -0.9097   -4.3118    3.6227 C   0  0  0  0  0  0
   -2.0445   -3.2668    3.5535 C   0  0  0  0  0  0
   -3.4342   -3.9337    3.4590 C   0  0  0  0  0  0
   -1.9956   -2.3915    4.8178 C   0  0  0  0  0  0
   -1.8309   -2.3384    2.4825 O   0  0  0  0  0  0
   -1.7876   -2.6715    1.1639 C   0  0  0  0  0  0
   -1.9676   -3.8066    0.7228 O   0  0  0  0  0  0
   -1.5082   -1.5383    0.3943 N   0  0  0  0  0  0
   -1.0829   -0.2516    0.9496 C   0  0  0  0  0  0
   -0.2991    0.4434   -0.1691 C   0  0  1  0  0  0
    1.1447    0.2385   -0.0498 N   0  0  0  0  0  0
    1.7791   -0.9843    0.1472 C   0  0  0  0  0  0
    3.1373   -0.8197    0.2154 C   0  0  0  0  0  0
    4.1745   -1.8266    0.4280 C   0  0  0  0  0  0
    4.2400   -2.9554   -0.4158 C   0  0  0  0  0  0
    5.2281   -3.9385   -0.2123 C   0  0  0  0  0  0
    6.1512   -3.8018    0.8422 C   0  0  0  0  0  0
    6.0834   -2.6831    1.6947 C   0  0  0  0  0  0
    5.0954   -1.7003    1.4900 C   0  0  0  0  0  0
    3.3852    0.5849    0.0118 C   0  0  0  0  0  0
    4.5083    1.4519   -0.0817 C   0  0  0  0  0  0
    5.8288    1.0180    0.0092 N   0  0  0  0  0  0
    4.3135    2.7739   -0.2860 N   0  0  0  0  0  0
    3.0668    3.2368   -0.4035 C   0  0  0  0  0  0
    1.9182    2.5591   -0.3532 N   0  0  0  0  0  0
    2.1193    1.2234   -0.1441 C   0  0  0  0  0  0
   -0.8616   -0.1701   -1.4513 C   0  0  0  0  0  0
   -1.3630   -1.5722   -1.0653 C   0  0  2  0  0  0
   -2.6704   -1.9562   -1.7918 C   0  0  0  0  0  0
   -2.4368   -2.0735   -3.1790 O   0  0  0  0  0  0
   -0.4975    1.5154   -0.1458 H   0  0  0  0  0  0
   -0.5887   -2.3049   -1.2993 H   0  0  0  0  0  0
    0.0688   -3.8309    3.6512 H   0  0  0  0  0  0
   -0.9995   -4.9269    4.5186 H   0  0  0  0  0  0
   -0.9190   -4.9904    2.7703 H   0  0  0  0  0  0
   -4.2255   -3.1881    3.3736 H   0  0  0  0  0  0
   -3.5171   -4.6024    2.6030 H   0  0  0  0  0  0
   -3.6411   -4.5312    4.3475 H   0  0  0  0  0  0
   -2.7705   -1.6237    4.7989 H   0  0  0  0  0  0
   -2.1438   -2.9861    5.7201 H   0  0  0  0  0  0
   -1.0345   -1.8841    4.9128 H   0  0  0  0  0  0
   -1.9746    0.3229    1.2035 H   0  0  0  0  0  0
   -0.4804   -0.3438    1.8553 H   0  0  0  0  0  0
    1.2099   -1.8965    0.2419 H   0  0  0  0  0  0
    3.5345   -3.0681   -1.2264 H   0  0  0  0  0  0
    5.2768   -4.7977   -0.8650 H   0  0  0  0  0  0
    6.9085   -4.5558    0.9992 H   0  0  0  0  0  0
    6.7878   -2.5794    2.5068 H   0  0  0  0  0  0
    5.0458   -0.8480    2.1521 H   0  0  0  0  0  0
    6.0544    0.0436    0.1507 H   0  0  0  0  0  0
    6.6017    1.6620   -0.0769 H   0  0  0  0  0  0
    2.9759    4.3005   -0.5656 H   0  0  0  0  0  0
   -1.6974    0.4440   -1.7898 H   0  0  0  0  0  0
   -0.1373   -0.1957   -2.2667 H   0  0  0  0  0  0
   -3.0598   -2.9119   -1.4430 H   0  0  0  0  0  0
   -3.4483   -1.2123   -1.6164 H   0  0  0  0  0  0
   -1.8015   -2.7591   -3.3195 H   0  0  0  0  0  0
  1  2  1  0  0  0
  1 33  1  0  0  0
  1 34  1  0  0  0
  1 35  1  0  0  0
  2  3  1  0  0  0
  2  4  1  0  0  0
  2  5  1  0  0  0
  3 36  1  0  0  0
  3 37  1  0  0  0
  3 38  1  0  0  0
  4 39  1  0  0  0
  4 40  1  0  0  0
  4 41  1  0  0  0
  5  6  1  0  0  0
  6  7  2  0  0  0
  6  8  1  0  0  0
  8 28  1  0  0  0
  8  9  1  0  0  0
  9 10  1  0  0  0
  9 42  1  0  0  0
  9 43  1  0  0  0
 10 31  1  0  0  0
 10 11  1  0  0  0
 10 27  1  0  0  0
 11 26  1  0  0  0
 11 12  1  0  0  0
 12 13  2  0  0  0
 12 44  1  0  0  0
 13 14  1  0  0  0
 13 20  1  0  0  0
 14 19  1  0  0  0
 14 15  2  0  0  0
 15 16  1  0  0  0
 15 45  1  0  0  0
 16 17  2  0  0  0
 16 46  1  0  0  0
 17 18  1  0  0  0
 17 47  1  0  0  0
 18 19  2  0  0  0
 18 48  1  0  0  0
 19 49  1  0  0  0
 20 26  2  0  0  0
 20 21  1  0  0  0
 21 22  1  0  0  0
 21 23  2  0  0  0
 22 50  1  0  0  0
 22 51  1  0  0  0
 23 24  1  0  0  0
 24 25  2  0  0  0
 24 52  1  0  0  0
 25 26  1  0  0  0
 27 28  1  0  0  0
 27 53  1  0  0  0
 27 54  1  0  0  0
 28 32  1  0  0  0
 28 29  1  0  0  0
 29 30  1  0  0  0
 29 55  1  0  0  0
 29 56  1  0  0  0
 30 57  1  0  0  0
M  END
$$$$
192
                    3D
 Schrodinger Suite 2021-2.
 58 60  0  0  1  0            999 V2000
    0.1635   -3.1759   -1.2377 C   0  0  0  0  0  0
   -0.0122   -2.5780    0.1630 C   0  0  0  0  0  0
   -0.7254   -1.2333    0.1326 C   0  0  0  0  0  0
   -2.0742   -1.3108    0.1356 N   0  0  0  0  0  0
   -2.7808   -0.1655    0.1014 C   0  0  0  0  0  0
   -4.1683   -0.2840    0.1054 N   0  0  0  0  0  0
   -2.1805    1.1062    0.0615 C   0  0  0  0  0  0
   -0.7665    1.1946    0.0485 C   0  0  0  0  0  0
   -0.0738    2.3876    0.0069 O   0  0  0  0  0  0
   -0.8199    3.5955   -0.0024 C   0  0  0  0  0  0
   -0.0159   -0.0054    0.0788 C   0  0  0  0  0  0
    1.4546    0.0431    0.0517 C   0  0  0  0  0  0
    2.1472    0.1093   -1.1742 C   0  0  0  0  0  0
    3.5529    0.1379   -1.1978 C   0  0  0  0  0  0
    4.2791    0.0936    0.0065 C   0  0  0  0  0  0
    3.6051    0.0624    1.2480 C   0  0  0  0  0  0
    2.1897    0.0292    1.2553 C   0  0  0  0  0  0
    4.3775    0.0833    2.4529 N   0  0  0  0  0  0
    3.7286    0.3580    3.7462 C   0  0  0  0  0  0
    3.2612   -0.9413    4.4304 C   0  0  0  0  0  0
    2.5054   -0.6610    5.6448 N   0  0  0  0  0  0
    1.2020   -0.3447    5.6824 C   0  0  0  0  0  0
    0.6106   -0.0784    7.0623 C   0  0  0  0  0  0
    0.4927   -0.2592    4.6801 O   0  0  0  0  0  0
    5.7044   -0.1924    2.4178 C   0  0  0  0  0  0
    6.4075   -0.2289    3.4301 O   0  0  0  0  0  0
    6.3444   -0.5216    1.0454 C   0  0  0  0  0  0
    7.7849    0.0206    0.9678 C   0  0  0  0  0  0
    6.3377   -2.0462    0.8169 C   0  0  0  0  0  0
    5.6500    0.1118   -0.0352 O   0  0  0  0  0  0
    0.6690   -4.1403   -1.1866 H   0  0  0  0  0  0
   -0.8001   -3.3296   -1.7241 H   0  0  0  0  0  0
    0.7597   -2.5212   -1.8738 H   0  0  0  0  0  0
   -0.5885   -3.2694    0.7795 H   0  0  0  0  0  0
    0.9559   -2.4894    0.6552 H   0  0  0  0  0  0
   -4.7684    0.5276    0.0859 H   0  0  0  0  0  0
   -4.6177   -1.1878    0.1352 H   0  0  0  0  0  0
   -2.8093    1.9833    0.0380 H   0  0  0  0  0  0
   -0.1338    4.4419   -0.0241 H   0  0  0  0  0  0
   -1.4561    3.6639   -0.8858 H   0  0  0  0  0  0
   -1.4339    3.6918    0.8941 H   0  0  0  0  0  0
    1.5975    0.1304   -2.1039 H   0  0  0  0  0  0
    4.0750    0.1801   -2.1423 H   0  0  0  0  0  0
    1.6367   -0.0179    2.1805 H   0  0  0  0  0  0
    4.4014    0.9003    4.4132 H   0  0  0  0  0  0
    2.8946    1.0457    3.6058 H   0  0  0  0  0  0
    2.6579   -1.5443    3.7499 H   0  0  0  0  0  0
    4.1222   -1.5539    4.6987 H   0  0  0  0  0  0
    3.0098   -0.7076    6.5184 H   0  0  0  0  0  0
    0.9189   -0.8487    7.7702 H   0  0  0  0  0  0
    0.9455    0.8897    7.4359 H   0  0  0  0  0  0
   -0.4791   -0.0712    7.0214 H   0  0  0  0  0  0
    8.4364   -0.4482    1.7065 H   0  0  0  0  0  0
    8.2202   -0.1683   -0.0138 H   0  0  0  0  0  0
    7.8134    1.0983    1.1342 H   0  0  0  0  0  0
    6.9191   -2.5660    1.5794 H   0  0  0  0  0  0
    5.3260   -2.4538    0.8404 H   0  0  0  0  0  0
    6.7674   -2.2980   -0.1531 H   0  0  0  0  0  0
  1  2  1  0  0  0
  1 31  1  0  0  0
  1 32  1  0  0  0
  1 33  1  0  0  0
  2  3  1  0  0  0
  2 34  1  0  0  0
  2 35  1  0  0  0
  3 11  1  0  0  0
  3  4  2  0  0  0
  4  5  1  0  0  0
  5  6  1  0  0  0
  5  7  2  0  0  0
  6 36  1  0  0  0
  6 37  1  0  0  0
  7  8  1  0  0  0
  7 38  1  0  0  0
  8  9  1  0  0  0
  8 11  2  0  0  0
  9 10  1  0  0  0
 10 39  1  0  0  0
 10 40  1  0  0  0
 10 41  1  0  0  0
 11 12  1  0  0  0
 12 17  1  0  0  0
 12 13  2  0  0  0
 13 14  1  0  0  0
 13 42  1  0  0  0
 14 15  2  0  0  0
 14 43  1  0  0  0
 15 30  1  0  0  0
 15 16  1  0  0  0
 16 17  2  0  0  0
 16 18  1  0  0  0
 17 44  1  0  0  0
 18 19  1  0  0  0
 18 25  1  0  0  0
 19 20  1  0  0  0
 19 45  1  0  0  0
 19 46  1  0  0  0
 20 21  1  0  0  0
 20 47  1  0  0  0
 20 48  1  0  0  0
 21 22  1  0  0  0
 21 49  1  0  0  0
 22 23  1  0  0  0
 22 24  2  0  0  0
 23 50  1  0  0  0
 23 51  1  0  0  0
 23 52  1  0  0  0
 25 26  2  0  0  0
 25 27  1  0  0  0
 27 28  1  0  0  0
 27 29  1  0  0  0
 27 30  1  0  0  0
 28 53  1  0  0  0
 28 54  1  0  0  0
 28 55  1  0  0  0
 29 56  1  0  0  0
 29 57  1  0  0  0
 29 58  1  0  0  0
M  END
$$$$
193
                    3D
 Schrodinger Suite 2021-2.
 45 47  0  0  1  0            999 V2000
   -4.4138    0.6677    0.0001 C   0  0  0  0  0  0
   -3.2321    1.6537   -0.0000 C   0  0  0  0  0  0
   -3.3102    2.5283   -1.2692 C   0  0  0  0  0  0
   -3.3101    2.5285    1.2691 C   0  0  0  0  0  0
   -2.0043    0.8484   -0.0000 N   0  0  0  0  0  0
   -0.7275    1.2693   -0.0000 C   0  0  0  0  0  0
   -0.3914    2.4535    0.0000 O   0  0  0  0  0  0
    0.1183    0.2241   -0.0000 N   0  0  0  0  0  0
    1.5432    0.2252   -0.0000 C   0  0  0  0  0  0
    2.2740    1.3702   -0.0000 N   0  0  0  0  0  0
    3.6203    1.3269   -0.0000 C   0  0  0  0  0  0
    4.3315    2.4762    0.0000 N   0  0  0  0  0  0
    5.6647    2.3776    0.0000 C   0  0  0  0  0  0
    6.3642    3.5599    0.0001 N   0  0  0  0  0  0
    6.3921    1.2615    0.0000 N   0  0  0  0  0  0
    5.6992    0.1067   -0.0000 C   0  0  0  0  0  0
    4.2895    0.0999   -0.0000 C   0  0  0  0  0  0
    3.5647   -1.1035   -0.0001 C   0  0  0  0  0  0
    2.1589   -1.0531   -0.0000 C   0  0  0  0  0  0
    1.3890   -2.3077   -0.0000 C   0  0  0  0  0  0
    1.0116   -2.9171    1.2159 C   0  0  0  0  0  0
    0.2674   -4.1128    1.2179 C   0  0  0  0  0  0
   -0.1056   -4.7119    0.0000 C   0  0  0  0  0  0
    0.2673   -4.1129   -1.2178 C   0  0  0  0  0  0
    1.0116   -2.9172   -1.2158 C   0  0  0  0  0  0
   -4.3951    0.0233    0.8799 H   0  0  0  0  0  0
   -5.3694    1.1936   -0.0000 H   0  0  0  0  0  0
   -4.3951    0.0233   -0.8800 H   0  0  0  0  0  0
   -2.5213    3.2801   -1.2997 H   0  0  0  0  0  0
   -3.2254    1.9245   -2.1733 H   0  0  0  0  0  0
   -4.2599    3.0619   -1.3204 H   0  0  0  0  0  0
   -2.5214    3.2800    1.2997 H   0  0  0  0  0  0
   -4.2599    3.0619    1.3204 H   0  0  0  0  0  0
   -3.2254    1.9245    2.1734 H   0  0  0  0  0  0
   -2.1477   -0.1509   -0.0000 H   0  0  0  0  0  0
   -0.3085   -0.6908   -0.0001 H   0  0  0  0  0  0
    7.3738    3.5566    0.0001 H   0  0  0  0  0  0
    5.8751    4.4432    0.0000 H   0  0  0  0  0  0
    6.2709   -0.8098   -0.0001 H   0  0  0  0  0  0
    4.0776   -2.0547   -0.0001 H   0  0  0  0  0  0
    1.2930   -2.4638    2.1552 H   0  0  0  0  0  0
   -0.0172   -4.5698    2.1542 H   0  0  0  0  0  0
   -0.6762   -5.6291    0.0001 H   0  0  0  0  0  0
   -0.0173   -4.5699   -2.1541 H   0  0  0  0  0  0
    1.2930   -2.4639   -2.1553 H   0  0  0  0  0  0
  1  2  1  0  0  0
  1 26  1  0  0  0
  1 27  1  0  0  0
  1 28  1  0  0  0
  2  3  1  0  0  0
  2  4  1  0  0  0
  2  5  1  0  0  0
  3 29  1  0  0  0
  3 30  1  0  0  0
  3 31  1  0  0  0
  4 32  1  0  0  0
  4 33  1  0  0  0
  4 34  1  0  0  0
  5  6  1  0  0  0
  5 35  1  0  0  0
  6  7  2  0  0  0
  6  8  1  0  0  0
  8  9  1  0  0  0
  8 36  1  0  0  0
  9 19  1  0  0  0
  9 10  2  0  0  0
 10 11  1  0  0  0
 11 17  2  0  0  0
 11 12  1  0  0  0
 12 13  2  0  0  0
 13 14  1  0  0  0
 13 15  1  0  0  0
 14 37  1  0  0  0
 14 38  1  0  0  0
 15 16  2  0  0  0
 16 17  1  0  0  0
 16 39  1  0  0  0
 17 18  1  0  0  0
 18 19  2  0  0  0
 18 40  1  0  0  0
 19 20  1  0  0  0
 20 25  1  0  0  0
 20 21  2  0  0  0
 21 22  1  0  0  0
 21 41  1  0  0  0
 22 23  2  0  0  0
 22 42  1  0  0  0
 23 24  1  0  0  0
 23 43  1  0  0  0
 24 25  2  0  0  0
 24 44  1  0  0  0
 25 45  1  0  0  0
M  END
$$$$
194
                    3D
 Schrodinger Suite 2021-2.
 42 44  0  0  1  0            999 V2000
   -5.1706    6.1404   -0.1648 C   0  0  0  0  0  0
   -4.2427    4.9507   -0.0316 C   0  0  0  0  0  0
   -4.7442    3.6921    0.3572 C   0  0  0  0  0  0
   -3.8740    2.5918    0.4800 C   0  0  0  0  0  0
   -2.4939    2.7377    0.2276 C   0  0  0  0  0  0
   -1.6811    1.5794    0.3606 N   0  0  0  0  0  0
   -0.3603    1.5046    0.6104 C   0  0  0  0  0  0
    0.3778    2.4725    0.7906 O   0  0  0  0  0  0
    0.2196    0.0959    0.6968 C   0  0  0  0  0  0
    0.5753   -0.6030   -0.9401 S   0  0  0  0  0  0
    1.2508   -2.2287   -0.4935 C   0  0  0  0  0  0
    1.4114   -2.7148    0.7131 N   0  0  0  0  0  0
    1.9477   -3.9920    0.7590 C   0  0  0  0  0  0
    2.2956   -4.7162   -0.3295 C   0  0  0  0  0  0
    2.7909   -5.9577    0.1388 C   0  0  0  0  0  0
    2.7417   -5.9833    1.4716 N   0  0  0  0  0  0
    2.2248   -4.7789    1.8577 N   0  0  0  0  0  0
    2.0325   -4.4896    3.2679 C   0  0  0  0  0  0
    0.7023   -5.0430    3.8042 C   0  0  0  0  0  0
   -0.3990   -4.4454    3.1501 O   0  0  0  0  0  0
    2.1199   -4.1654   -1.6991 C   0  0  0  0  0  0
    2.4253   -4.7876   -2.7141 O   0  0  0  0  0  0
    1.5917   -2.9213   -1.6814 N   0  0  0  0  0  0
   -1.9968    3.9992   -0.1809 C   0  0  0  0  0  0
   -2.8682    5.0988   -0.3043 C   0  0  0  0  0  0
    1.4348   -2.4652   -2.5684 H   0  0  0  0  0  0
   -6.1826    5.8945    0.1584 H   0  0  0  0  0  0
   -4.8118    6.9700    0.4449 H   0  0  0  0  0  0
   -5.2143    6.4703   -1.2029 H   0  0  0  0  0  0
   -5.7971    3.5647    0.5623 H   0  0  0  0  0  0
   -4.2722    1.6325    0.7777 H   0  0  0  0  0  0
   -2.1739    0.6988    0.3274 H   0  0  0  0  0  0
    1.1394    0.1203    1.2826 H   0  0  0  0  0  0
   -0.4782   -0.5558    1.2245 H   0  0  0  0  0  0
    3.1664   -6.8084   -0.4104 H   0  0  0  0  0  0
    2.8661   -4.9180    3.8260 H   0  0  0  0  0  0
    2.0825   -3.4100    3.4147 H   0  0  0  0  0  0
    0.6545   -6.1240    3.6682 H   0  0  0  0  0  0
    0.6202   -4.8499    4.8739 H   0  0  0  0  0  0
   -1.1939   -4.8206    3.4975 H   0  0  0  0  0  0
   -0.9542    4.1445   -0.4176 H   0  0  0  0  0  0
   -2.4782    6.0574   -0.6140 H   0  0  0  0  0  0
  1  2  1  0  0  0
  1 27  1  0  0  0
  1 28  1  0  0  0
  1 29  1  0  0  0
  2 25  1  0  0  0
  2  3  2  0  0  0
  3  4  1  0  0  0
  3 30  1  0  0  0
  4  5  2  0  0  0
  4 31  1  0  0  0
  5  6  1  0  0  0
  5 24  1  0  0  0
  6  7  1  0  0  0
  6 32  1  0  0  0
  7  8  2  0  0  0
  7  9  1  0  0  0
  9 10  1  0  0  0
  9 33  1  0  0  0
  9 34  1  0  0  0
 10 11  1  0  0  0
 11 23  1  0  0  0
 11 12  2  0  0  0
 12 13  1  0  0  0
 13 17  1  0  0  0
 13 14  2  0  0  0
 14 15  1  0  0  0
 14 21  1  0  0  0
 15 16  2  0  0  0
 15 35  1  0  0  0
 16 17  1  0  0  0
 17 18  1  0  0  0
 18 19  1  0  0  0
 18 36  1  0  0  0
 18 37  1  0  0  0
 19 20  1  0  0  0
 19 38  1  0  0  0
 19 39  1  0  0  0
 20 40  1  0  0  0
 21 22  2  0  0  0
 21 23  1  0  0  0
 23 26  1  0  0  0
 24 25  2  0  0  0
 24 41  1  0  0  0
 25 42  1  0  0  0
M  END
$$$$
195
                    3D
 Schrodinger Suite 2021-2.
 48 51  0  0  1  0            999 V2000
   -0.1414   -2.6258    0.0007 C   0  0  0  0  0  0
   -0.7413   -1.2281    0.0073 C   0  0  0  0  0  0
   -2.0882   -1.1910    0.0187 N   0  0  0  0  0  0
   -2.6923    0.0169    0.0211 C   0  0  0  0  0  0
   -4.0970    0.0920    0.0285 C   0  0  0  0  0  0
   -4.7102    1.3521    0.0268 C   0  0  0  0  0  0
   -4.0143    2.5019    0.0182 N   0  0  0  0  0  0
   -2.6586    2.4603    0.0134 C   0  0  0  0  0  0
   -2.0272    3.7953    0.0016 C   0  0  0  0  0  0
   -0.7265    4.2365    0.0577 C   0  0  0  0  0  0
   -0.7241    5.6614    0.0106 C   0  0  0  0  0  0
   -2.0180    6.0725   -0.0704 C   0  0  0  0  0  0
   -2.8046    4.9438   -0.0711 N   0  0  0  0  0  0
   -2.5049    7.4756   -0.1285 C   0  0  0  0  0  0
   -1.3564    8.4194   -0.5602 C   0  0  0  0  0  0
   -0.0165    7.9628   -0.1526 N   0  0  0  0  0  0
    0.3471    6.6812    0.0639 C   0  0  0  0  0  0
    1.5126    6.3715    0.3006 O   0  0  0  0  0  0
   -1.9359    1.2287    0.0141 C   0  0  0  0  0  0
   -0.5801    1.1662    0.0048 N   0  0  0  0  0  0
    0.0310   -0.0425    0.0005 C   0  0  0  0  0  0
    1.4363   -0.1274   -0.0139 N   0  0  0  0  0  0
    2.3894    0.9850    0.0105 C   0  0  0  0  0  0
    3.8013    0.3706   -0.0152 C   0  0  0  0  0  0
    2.2641    1.8041    1.3134 C   0  0  0  0  0  0
    2.2498    1.8772   -1.2424 C   0  0  0  0  0  0
   -3.8135    4.9435   -0.1194 H   0  0  0  0  0  0
    0.9477   -2.6314    0.0005 H   0  0  0  0  0  0
   -0.4744   -3.1776    0.8802 H   0  0  0  0  0  0
   -0.4751   -3.1687   -0.8840 H   0  0  0  0  0  0
   -4.6969   -0.8062    0.0340 H   0  0  0  0  0  0
   -5.7865    1.4392    0.0315 H   0  0  0  0  0  0
    0.1501    3.6185    0.1324 H   0  0  0  0  0  0
   -3.3533    7.5675   -0.8075 H   0  0  0  0  0  0
   -2.8597    7.7647    0.8612 H   0  0  0  0  0  0
   -1.3381    8.4723   -1.6494 H   0  0  0  0  0  0
   -1.5357    9.4347   -0.2060 H   0  0  0  0  0  0
    0.7047    8.6670   -0.0959 H   0  0  0  0  0  0
    1.8381   -1.0537   -0.0172 H   0  0  0  0  0  0
    3.9597   -0.2301   -0.9120 H   0  0  0  0  0  0
    4.5725    1.1416    0.0007 H   0  0  0  0  0  0
    3.9711   -0.2775    0.8457 H   0  0  0  0  0  0
    1.2891    2.2689    1.4351 H   0  0  0  0  0  0
    2.4281    1.1762    2.1900 H   0  0  0  0  0  0
    3.0037    2.6050    1.3450 H   0  0  0  0  0  0
    1.2829    2.3687   -1.3143 H   0  0  0  0  0  0
    3.0042    2.6646   -1.2477 H   0  0  0  0  0  0
    2.3813    1.2962   -2.1558 H   0  0  0  0  0  0
  1  2  1  0  0  0
  1 28  1  0  0  0
  1 29  1  0  0  0
  1 30  1  0  0  0
  2 21  1  0  0  0
  2  3  2  0  0  0
  3  4  1  0  0  0
  4 19  2  0  0  0
  4  5  1  0  0  0
  5  6  2  0  0  0
  5 31  1  0  0  0
  6  7  1  0  0  0
  6 32  1  0  0  0
  7  8  2  0  0  0
  8  9  1  0  0  0
  8 19  1  0  0  0
  9 13  1  0  0  0
  9 10  2  0  0  0
 10 11  1  0  0  0
 10 33  1  0  0  0
 11 17  1  0  0  0
 11 12  2  0  0  0
 12 13  1  0  0  0
 12 14  1  0  0  0
 13 27  1  0  0  0
 14 15  1  0  0  0
 14 34  1  0  0  0
 14 35  1  0  0  0
 15 16  1  0  0  0
 15 36  1  0  0  0
 15 37  1  0  0  0
 16 17  1  0  0  0
 16 38  1  0  0  0
 17 18  2  0  0  0
 19 20  1  0  0  0
 20 21  2  0  0  0
 21 22  1  0  0  0
 22 23  1  0  0  0
 22 39  1  0  0  0
 23 24  1  0  0  0
 23 25  1  0  0  0
 23 26  1  0  0  0
 24 40  1  0  0  0
 24 41  1  0  0  0
 24 42  1  0  0  0
 25 43  1  0  0  0
 25 44  1  0  0  0
 25 45  1  0  0  0
 26 46  1  0  0  0
 26 47  1  0  0  0
 26 48  1  0  0  0
M  END
$$$$
196
                    3D
 Schrodinger Suite 2021-2.
108110  0  0  1  0            999 V2000
   -0.8546    4.4731   -0.3526 C   0  0  0  0  0  0
   -0.4594    3.3042    0.5393 C   0  0  0  0  0  0
   -0.0272    3.4829    1.6779 O   0  0  0  0  0  0
   -0.6452    2.1185   -0.0656 O   0  0  0  0  0  0
   -0.2878    0.9014    0.5764 C   0  0  0  0  0  0
    1.1366    0.4851    0.2337 C   0  0  0  0  0  0
    1.6022    0.2565   -1.0111 C   0  0  0  0  0  0
    0.8687    0.0771   -2.3376 C   0  0  2  0  0  0
   -0.4993   -0.2696   -2.1175 O   0  0  0  0  0  0
   -1.5144    0.4868   -2.5910 C   0  0  0  0  0  0
   -2.8782   -0.0628   -2.1927 C   0  0  0  0  0  0
   -1.4095    1.5095   -3.2670 O   0  0  0  0  0  0
    1.5989   -0.9442   -3.3135 C   0  0  2  0  0  0
    2.8672   -0.2071   -3.8350 C   0  0  0  0  0  0
    0.7224   -1.1562   -4.5799 C   0  0  0  0  0  0
   -0.3483   -2.2782   -4.5105 C   0  0  2  0  0  0
   -1.6217   -1.7217   -4.8327 O   0  0  0  0  0  0
   -2.0140   -1.5778   -6.1122 C   0  0  0  0  0  0
   -3.4018   -0.9615   -6.2228 C   0  0  0  0  0  0
   -1.3635   -1.8843   -7.1112 O   0  0  0  0  0  0
   -0.4031   -3.0729   -3.1978 C   0  0  0  0  0  0
   -1.7255   -3.8212   -3.0476 C   0  0  0  0  0  0
    0.6074   -3.0569   -2.2791 C   0  0  0  0  0  0
    0.4629   -3.7641   -0.8949 C   0  0  1  0  0  0
    1.5815   -4.4881   -0.3934 O   0  0  0  0  0  0
    1.8974   -5.7098   -0.8836 C   0  0  0  0  0  0
    3.0825   -6.3405   -0.1668 C   0  0  0  0  0  0
    1.3300   -6.2917   -1.8083 O   0  0  0  0  0  0
   -0.3777   -2.9995    0.1618 C   0  0  0  0  0  0
   -1.7071   -3.1397   -0.1626 O   0  0  0  0  0  0
   -2.3897   -4.2192    0.3175 C   0  0  0  0  0  0
   -3.8528   -4.2108   -0.1030 C   0  0  0  0  0  0
   -1.9286   -5.1251    1.0134 O   0  0  0  0  0  0
   -0.0877   -2.3629    1.3447 C   0  0  0  0  0  0
   -1.2519   -1.8764    2.2198 C   0  0  0  0  0  0
    1.2524   -2.1511    2.0916 C   0  0  1  0  0  0
    2.3924   -2.8019    1.5508 O   0  0  0  0  0  0
    3.3562   -3.2973    2.3624 C   0  0  0  0  0  0
    4.5687   -3.8166    1.6017 C   0  0  0  0  0  0
    3.3240   -3.3272    3.5925 O   0  0  0  0  0  0
    1.6081   -0.6801    2.4984 C   0  0  0  0  0  0
    2.0899    0.3116    1.4111 C   0  0  2  0  0  0
    2.3529    1.5597    2.0417 O   0  0  0  0  0  0
    3.2867    2.4021    1.5546 C   0  0  0  0  0  0
    4.0012    2.1690    0.5772 O   0  0  0  0  0  0
    3.3258    3.6459    2.3385 C   0  0  0  0  0  0
    4.1750    4.6467    2.0334 C   0  0  0  0  0  0
    4.2907    5.9344    2.7413 C   0  0  0  0  0  0
    3.4700    6.2756    3.8427 C   0  0  0  0  0  0
    3.6176    7.5193    4.4875 C   0  0  0  0  0  0
    4.5866    8.4361    4.0400 C   0  0  0  0  0  0
    5.4087    8.1068    2.9467 C   0  0  0  0  0  0
    5.2602    6.8631    2.3029 C   0  0  0  0  0  0
    1.9391   -2.3805   -2.7047 C   0  0  0  0  0  0
    2.6042   -3.3105   -3.7671 C   0  0  0  0  0  0
    3.0255   -2.3426   -1.5997 C   0  0  0  0  0  0
    0.9130    1.0587   -2.8107 H   0  0  0  0  0  0
   -0.1136   -3.0249   -5.2708 H   0  0  0  0  0  0
   -0.2119   -4.5843   -1.1066 H   0  0  0  0  0  0
    1.0452   -2.6619    3.0333 H   0  0  0  0  0  0
    3.0313   -0.0893    1.0317 H   0  0  0  0  0  0
   -1.8545    4.3202   -0.7594 H   0  0  0  0  0  0
   -0.8498    5.4054    0.2125 H   0  0  0  0  0  0
   -0.1537    4.5675   -1.1821 H   0  0  0  0  0  0
   -0.4023    1.0056    1.6547 H   0  0  0  0  0  0
   -0.9814    0.1193    0.2730 H   0  0  0  0  0  0
    2.6649    0.1040   -1.0797 H   0  0  0  0  0  0
   -2.7734   -0.9207   -1.5279 H   0  0  0  0  0  0
   -3.4569    0.7037   -1.6774 H   0  0  0  0  0  0
   -3.4304   -0.3783   -3.0779 H   0  0  0  0  0  0
    3.4228   -0.7918   -4.5667 H   0  0  0  0  0  0
    2.5922    0.7219   -4.3366 H   0  0  0  0  0  0
    3.5680    0.0725   -3.0517 H   0  0  0  0  0  0
    0.2679   -0.2061   -4.8644 H   0  0  0  0  0  0
    1.3565   -1.3944   -5.4347 H   0  0  0  0  0  0
   -4.1357   -1.5888   -5.7169 H   0  0  0  0  0  0
   -3.4132    0.0264   -5.7622 H   0  0  0  0  0  0
   -3.6952   -0.8599   -7.2680 H   0  0  0  0  0  0
   -2.0478   -4.1959   -4.0196 H   0  0  0  0  0  0
   -1.6809   -4.6992   -2.4105 H   0  0  0  0  0  0
   -2.5030   -3.1523   -2.6791 H   0  0  0  0  0  0
    2.9741   -6.2351    0.9127 H   0  0  0  0  0  0
    3.1507   -7.4024   -0.4034 H   0  0  0  0  0  0
    4.0097   -5.8585   -0.4757 H   0  0  0  0  0  0
   -4.1658   -3.2029   -0.3764 H   0  0  0  0  0  0
   -4.0016   -4.8650   -0.9620 H   0  0  0  0  0  0
   -4.4851   -4.5599    0.7133 H   0  0  0  0  0  0
   -1.1132   -0.8715    2.6030 H   0  0  0  0  0  0
   -2.2108   -1.8385    1.7065 H   0  0  0  0  0  0
   -1.3654   -2.5405    3.0769 H   0  0  0  0  0  0
    4.4152   -3.7551    0.5261 H   0  0  0  0  0  0
    5.4495   -3.2270    1.8558 H   0  0  0  0  0  0
    4.7633   -4.8562    1.8649 H   0  0  0  0  0  0
    0.8020   -0.2251    3.0672 H   0  0  0  0  0  0
    2.4108   -0.7370    3.2341 H   0  0  0  0  0  0
    2.6413    3.7257    3.1692 H   0  0  0  0  0  0
    4.8441    4.5225    1.1933 H   0  0  0  0  0  0
    2.7164    5.5961    4.2097 H   0  0  0  0  0  0
    2.9856    7.7696    5.3267 H   0  0  0  0  0  0
    4.6990    9.3896    4.5346 H   0  0  0  0  0  0
    6.1536    8.8082    2.6008 H   0  0  0  0  0  0
    5.8990    6.6247    1.4649 H   0  0  0  0  0  0
    3.5858   -2.9496   -4.0734 H   0  0  0  0  0  0
    2.7614   -4.3123   -3.3669 H   0  0  0  0  0  0
    2.0220   -3.4515   -4.6745 H   0  0  0  0  0  0
    3.8737   -1.7132   -1.8594 H   0  0  0  0  0  0
    2.6363   -2.0000   -0.6534 H   0  0  0  0  0  0
    3.4670   -3.3208   -1.4214 H   0  0  0  0  0  0
  1  2  1  0  0  0
  1 62  1  0  0  0
  1 63  1  0  0  0
  1 64  1  0  0  0
  2  3  2  0  0  0
  2  4  1  0  0  0
  4  5  1  0  0  0
  5  6  1  0  0  0
  5 65  1  0  0  0
  5 66  1  0  0  0
  6 42  1  0  0  0
  6  7  2  0  0  0
  7  8  1  0  0  0
  7 67  1  0  0  0
  8 57  1  0  0  0
  8  9  1  0  0  0
  8 13  1  0  0  0
  9 10  1  0  0  0
 10 11  1  0  0  0
 10 12  2  0  0  0
 11 68  1  0  0  0
 11 69  1  0  0  0
 11 70  1  0  0  0
 13 54  1  0  0  0
 13 14  1  0  0  0
 13 15  1  0  0  0
 14 71  1  0  0  0
 14 72  1  0  0  0
 14 73  1  0  0  0
 15 16  1  0  0  0
 15 74  1  0  0  0
 15 75  1  0  0  0
 16 58  1  0  0  0
 16 17  1  0  0  0
 16 21  1  0  0  0
 17 18  1  0  0  0
 18 19  1  0  0  0
 18 20  2  0  0  0
 19 76  1  0  0  0
 19 77  1  0  0  0
 19 78  1  0  0  0
 21 22  1  0  0  0
 21 23  2  0  0  0
 22 79  1  0  0  0
 22 80  1  0  0  0
 22 81  1  0  0  0
 23 24  1  0  0  0
 23 54  1  0  0  0
 24 59  1  0  0  0
 24 25  1  0  0  0
 24 29  1  0  0  0
 25 26  1  0  0  0
 26 27  1  0  0  0
 26 28  2  0  0  0
 27 82  1  0  0  0
 27 83  1  0  0  0
 27 84  1  0  0  0
 29 30  1  0  0  0
 29 34  2  0  0  0
 30 31  1  0  0  0
 31 32  1  0  0  0
 31 33  2  0  0  0
 32 85  1  0  0  0
 32 86  1  0  0  0
 32 87  1  0  0  0
 34 35  1  0  0  0
 34 36  1  0  0  0
 35 88  1  0  0  0
 35 89  1  0  0  0
 35 90  1  0  0  0
 36 60  1  0  0  0
 36 37  1  0  0  0
 36 41  1  0  0  0
 37 38  1  0  0  0
 38 39  1  0  0  0
 38 40  2  0  0  0
 39 91  1  0  0  0
 39 92  1  0  0  0
 39 93  1  0  0  0
 41 42  1  0  0  0
 41 94  1  0  0  0
 41 95  1  0  0  0
 42 61  1  0  0  0
 42 43  1  0  0  0
 43 44  1  0  0  0
 44 45  2  0  0  0
 44 46  1  0  0  0
 46 47  2  0  0  0
 46 96  1  0  0  0
 47 48  1  0  0  0
 47 97  1  0  0  0
 48 53  1  0  0  0
 48 49  2  0  0  0
 49 50  1  0  0  0
 49 98  1  0  0  0
 50 51  2  0  0  0
 50 99  1  0  0  0
 51 52  1  0  0  0
 51100  1  0  0  0
 52 53  2  0  0  0
 52101  1  0  0  0
 53102  1  0  0  0
 54 55  1  0  0  0
 54 56  1  0  0  0
 55103  1  0  0  0
 55104  1  0  0  0
 55105  1  0  0  0
 56106  1  0  0  0
 56107  1  0  0  0
 56108  1  0  0  0
M  END
$$$$
197
                    3D
 Schrodinger Suite 2021-2.
132133  0  0  1  0            999 V2000
   -2.5547    1.7234   -0.4847 C   0  0  0  0  0  0
   -1.0288    1.8305   -0.3417 C   0  0  0  0  0  0
   -0.4418    2.6474   -1.5056 C   0  0  0  0  0  0
   -0.4000    0.4236   -0.2120 C   0  0  0  0  0  0
    1.1265    0.3889    0.0713 C   0  0  2  0  0  0
    1.7434   -0.9297   -0.1150 N   0  0  0  0  0  0
    1.4735   -2.1454    0.3994 C   0  0  0  0  0  0
    2.1384   -3.1150    0.0385 O   0  0  0  0  0  0
    0.3332   -2.3748    1.4189 C   0  0  1  0  0  0
   -0.8736   -3.0423    0.7432 C   0  0  0  0  0  0
   -0.6089   -4.5352    0.8707 C   0  0  0  0  0  0
    0.1730   -4.6661    2.1794 C   0  0  0  0  0  0
    0.7491   -3.3416    2.4447 N   0  0  0  0  0  0
    1.5372   -3.0083    3.4951 C   0  0  0  0  0  0
    1.9012   -1.8467    3.6843 O   0  0  0  0  0  0
    2.0217   -4.1180    4.4598 C   0  0  2  0  0  0
    0.9262   -4.3865    5.5405 C   0  0  0  0  0  0
    0.9022   -5.8353    6.0806 C   0  0  0  0  0  0
   -0.3773   -6.0897    6.8927 C   0  0  0  0  0  0
    2.1406   -6.1957    6.9169 C   0  0  0  0  0  0
    3.3446   -3.7518    5.0366 N   0  0  0  0  0  0
    3.3734   -2.9083    6.2460 C   0  0  0  0  0  0
    4.5241   -4.0664    4.4354 C   0  0  0  0  0  0
    5.6082   -3.8207    4.9686 O   0  0  0  0  0  0
    4.5231   -4.7317    3.0388 C   0  0  0  0  0  0
    5.8715   -4.6272    2.2854 C   0  0  1  0  0  0
    6.8301   -5.5001    2.8553 O   0  0  0  0  0  0
    5.8115   -4.9077    0.7587 C   0  0  1  0  0  0
    5.1169   -6.2553    0.4391 C   0  0  0  0  0  0
    5.1826   -6.7061   -1.0386 C   0  0  0  0  0  0
    4.1532   -7.8131   -1.3131 C   0  0  0  0  0  0
    6.5886   -7.1797   -1.4426 C   0  0  0  0  0  0
    5.1199   -3.8433    0.0317 N   0  0  0  0  0  0
    5.4879   -2.6821   -0.5514 C   0  0  0  0  0  0
    4.6344   -2.0835   -1.2046 O   0  0  0  0  0  0
    6.8868   -2.0020   -0.4838 C   0  0  2  0  0  0
    8.1015   -2.6590    0.2304 C   0  0  0  0  0  0
    8.9012   -3.6536   -0.6426 C   0  0  0  0  0  0
    9.7380   -4.6020    0.2303 C   0  0  0  0  0  0
    9.8082   -2.9320   -1.6552 C   0  0  0  0  0  0
    6.7367   -0.5845   -0.0640 N   0  0  0  0  0  0
    7.1438    0.4036   -1.0704 C   0  0  0  0  0  0
    6.3710   -0.2385    1.2054 C   0  0  0  0  0  0
    6.1098   -1.0992    2.0469 O   0  0  0  0  0  0
    6.2416    1.2493    1.6414 C   0  0  2  0  0  0
    5.9803    1.4158    3.1689 C   0  0  0  0  0  0
    5.8541    2.8670    3.6881 C   0  0  0  0  0  0
    7.1754    3.6444    3.5741 C   0  0  0  0  0  0
    5.3524    2.8776    5.1400 C   0  0  0  0  0  0
    5.3450    2.0761    0.7834 N   0  0  0  0  0  0
    5.9973    3.1873    0.0648 C   0  0  0  0  0  0
    3.9856    2.0186    0.6890 C   0  0  0  0  0  0
    3.3795    2.7268   -0.1190 O   0  0  0  0  0  0
    3.1489    1.1136    1.6183 C   0  0  0  0  0  0
    1.6198    1.1493    1.3381 C   0  0  2  0  0  0
    0.9062    0.7641    2.4926 O   0  0  0  0  0  0
    1.5733    0.9216   -0.7661 H   0  0  0  0  0  0
    0.0215   -1.4566    1.9023 H   0  0  0  0  0  0
    2.1317   -5.0435    3.8988 H   0  0  0  0  0  0
    6.2457   -3.6200    2.4416 H   0  0  0  0  0  0
    6.8241   -4.9806    0.3833 H   0  0  0  0  0  0
    7.1495   -2.0000   -1.5401 H   0  0  0  0  0  0
    7.2598    1.6152    1.5210 H   0  0  0  0  0  0
    1.3362    2.1950    1.2197 H   0  0  0  0  0  0
   -2.8308    1.1868   -1.3930 H   0  0  0  0  0  0
   -2.9945    1.1944    0.3613 H   0  0  0  0  0  0
   -3.0170    2.7100   -0.5276 H   0  0  0  0  0  0
   -0.8420    2.3810    0.5801 H   0  0  0  0  0  0
   -0.5443    2.1182   -2.4535 H   0  0  0  0  0  0
   -0.9505    3.6065   -1.6056 H   0  0  0  0  0  0
    0.6151    2.8658   -1.3547 H   0  0  0  0  0  0
   -0.9417   -0.1005    0.5711 H   0  0  0  0  0  0
   -0.6006   -0.1341   -1.1279 H   0  0  0  0  0  0
    2.5171   -0.9230   -0.7645 H   0  0  0  0  0  0
   -1.7811   -2.7863    1.2916 H   0  0  0  0  0  0
   -1.0229   -2.7311   -0.2919 H   0  0  0  0  0  0
   -1.5229   -5.1293    0.8644 H   0  0  0  0  0  0
    0.0082   -4.8714    0.0366 H   0  0  0  0  0  0
   -0.5001   -4.9486    2.9887 H   0  0  0  0  0  0
    0.9391   -5.4362    2.0846 H   0  0  0  0  0  0
    0.9506   -3.6841    6.3709 H   0  0  0  0  0  0
   -0.0532   -4.2109    5.0942 H   0  0  0  0  0  0
    0.8734   -6.5118    5.2255 H   0  0  0  0  0  0
   -0.4286   -5.4382    7.7656 H   0  0  0  0  0  0
   -1.2698   -5.9121    6.2919 H   0  0  0  0  0  0
   -0.4224   -7.1207    7.2447 H   0  0  0  0  0  0
    2.2403   -5.5399    7.7819 H   0  0  0  0  0  0
    2.0762   -7.2192    7.2868 H   0  0  0  0  0  0
    3.0566   -6.1271    6.3313 H   0  0  0  0  0  0
    4.2614   -2.2778    6.3112 H   0  0  0  0  0  0
    2.5347   -2.2134    6.2739 H   0  0  0  0  0  0
    3.3412   -3.5237    7.1442 H   0  0  0  0  0  0
    4.2215   -5.7747    3.1397 H   0  0  0  0  0  0
    3.7713   -4.2413    2.4225 H   0  0  0  0  0  0
    6.5278   -6.3892    2.7508 H   0  0  0  0  0  0
    5.5321   -7.0467    1.0642 H   0  0  0  0  0  0
    4.0679   -6.1758    0.7284 H   0  0  0  0  0  0
    4.9155   -5.8642   -1.6778 H   0  0  0  0  0  0
    4.3510   -8.6980   -0.7074 H   0  0  0  0  0  0
    3.1412   -7.4750   -1.0889 H   0  0  0  0  0  0
    4.1708   -8.1156   -2.3605 H   0  0  0  0  0  0
    6.9125   -8.0243   -0.8340 H   0  0  0  0  0  0
    6.6092   -7.4968   -2.4857 H   0  0  0  0  0  0
    7.3297   -6.3907   -1.3339 H   0  0  0  0  0  0
    4.1424   -4.0536   -0.1130 H   0  0  0  0  0  0
    8.7991   -1.8775    0.5360 H   0  0  0  0  0  0
    7.8144   -3.1118    1.1697 H   0  0  0  0  0  0
    8.1995   -4.2603   -1.2132 H   0  0  0  0  0  0
   10.4717   -4.0509    0.8195 H   0  0  0  0  0  0
    9.1128   -5.1642    0.9239 H   0  0  0  0  0  0
   10.2774   -5.3259   -0.3809 H   0  0  0  0  0  0
   10.5460   -2.3068   -1.1512 H   0  0  0  0  0  0
   10.3506   -3.6485   -2.2727 H   0  0  0  0  0  0
    9.2394   -2.2923   -2.3292 H   0  0  0  0  0  0
    7.7672    1.1865   -0.6421 H   0  0  0  0  0  0
    7.7455   -0.0251   -1.8715 H   0  0  0  0  0  0
    6.2659    0.8501   -1.5362 H   0  0  0  0  0  0
    5.1034    0.8465    3.4699 H   0  0  0  0  0  0
    6.7972    0.9366    3.7115 H   0  0  0  0  0  0
    5.1041    3.3924    3.0975 H   0  0  0  0  0  0
    7.9704    3.1599    4.1418 H   0  0  0  0  0  0
    7.5080    3.7264    2.5404 H   0  0  0  0  0  0
    7.0657    4.6592    3.9572 H   0  0  0  0  0  0
    6.0496    2.3658    5.8042 H   0  0  0  0  0  0
    5.2295    3.8968    5.5074 H   0  0  0  0  0  0
    4.3854    2.3810    5.2260 H   0  0  0  0  0  0
    5.8086    3.1266   -1.0080 H   0  0  0  0  0  0
    5.6114    4.1453    0.4176 H   0  0  0  0  0  0
    7.0781    3.2276    0.1915 H   0  0  0  0  0  0
    3.5278    0.0919    1.6220 H   0  0  0  0  0  0
    3.2810    1.5100    2.6231 H   0  0  0  0  0  0
   -0.0152    0.9030    2.3360 H   0  0  0  0  0  0
  1  2  1  0  0  0
  1 65  1  0  0  0
  1 66  1  0  0  0
  1 67  1  0  0  0
  2  3  1  0  0  0
  2  4  1  0  0  0
  2 68  1  0  0  0
  3 69  1  0  0  0
  3 70  1  0  0  0
  3 71  1  0  0  0
  4  5  1  0  0  0
  4 72  1  0  0  0
  4 73  1  0  0  0
  5 57  1  0  0  0
  5 55  1  0  0  0
  5  6  1  0  0  0
  6  7  1  0  0  0
  6 74  1  0  0  0
  7  8  2  0  0  0
  7  9  1  0  0  0
  9 58  1  0  0  0
  9 13  1  0  0  0
  9 10  1  0  0  0
 10 11  1  0  0  0
 10 75  1  0  0  0
 10 76  1  0  0  0
 11 12  1  0  0  0
 11 77  1  0  0  0
 11 78  1  0  0  0
 12 13  1  0  0  0
 12 79  1  0  0  0
 12 80  1  0  0  0
 13 14  1  0  0  0
 14 15  2  0  0  0
 14 16  1  0  0  0
 16 59  1  0  0  0
 16 17  1  0  0  0
 16 21  1  0  0  0
 17 18  1  0  0  0
 17 81  1  0  0  0
 17 82  1  0  0  0
 18 19  1  0  0  0
 18 20  1  0  0  0
 18 83  1  0  0  0
 19 84  1  0  0  0
 19 85  1  0  0  0
 19 86  1  0  0  0
 20 87  1  0  0  0
 20 88  1  0  0  0
 20 89  1  0  0  0
 21 22  1  0  0  0
 21 23  1  0  0  0
 22 90  1  0  0  0
 22 91  1  0  0  0
 22 92  1  0  0  0
 23 24  2  0  0  0
 23 25  1  0  0  0
 25 26  1  0  0  0
 25 93  1  0  0  0
 25 94  1  0  0  0
 26 60  1  0  0  0
 26 27  1  0  0  0
 26 28  1  0  0  0
 27 95  1  0  0  0
 28 61  1  0  0  0
 28 29  1  0  0  0
 28 33  1  0  0  0
 29 30  1  0  0  0
 29 96  1  0  0  0
 29 97  1  0  0  0
 30 31  1  0  0  0
 30 32  1  0  0  0
 30 98  1  0  0  0
 31 99  1  0  0  0
 31100  1  0  0  0
 31101  1  0  0  0
 32102  1  0  0  0
 32103  1  0  0  0
 32104  1  0  0  0
 33 34  1  0  0  0
 33105  1  0  0  0
 34 35  2  0  0  0
 34 36  1  0  0  0
 36 62  1  0  0  0
 36 37  1  0  0  0
 36 41  1  0  0  0
 37 38  1  0  0  0
 37106  1  0  0  0
 37107  1  0  0  0
 38 39  1  0  0  0
 38 40  1  0  0  0
 38108  1  0  0  0
 39109  1  0  0  0
 39110  1  0  0  0
 39111  1  0  0  0
 40112  1  0  0  0
 40113  1  0  0  0
 40114  1  0  0  0
 41 42  1  0  0  0
 41 43  1  0  0  0
 42115  1  0  0  0
 42116  1  0  0  0
 42117  1  0  0  0
 43 44  2  0  0  0
 43 45  1  0  0  0
 45 63  1  0  0  0
 45 46  1  0  0  0
 45 50  1  0  0  0
 46 47  1  0  0  0
 46118  1  0  0  0
 46119  1  0  0  0
 47 48  1  0  0  0
 47 49  1  0  0  0
 47120  1  0  0  0
 48121  1  0  0  0
 48122  1  0  0  0
 48123  1  0  0  0
 49124  1  0  0  0
 49125  1  0  0  0
 49126  1  0  0  0
 50 51  1  0  0  0
 50 52  1  0  0  0
 51127  1  0  0  0
 51128  1  0  0  0
 51129  1  0  0  0
 52 53  2  0  0  0
 52 54  1  0  0  0
 54 55  1  0  0  0
 54130  1  0  0  0
 54131  1  0  0  0
 55 64  1  0  0  0
 55 56  1  0  0  0
 56132  1  0  0  0
M  END
$$$$
198
                    3D
 Schrodinger Suite 2021-2.
103105  0  0  1  0            999 V2000
  -10.1737    1.7165   -0.2466 C   0  0  0  0  0  0
   -9.2027    0.6564    0.2846 C   0  0  0  0  0  0
   -7.7809    0.8332   -0.2665 C   0  0  0  0  0  0
   -6.8074   -0.2324    0.2619 C   0  0  0  0  0  0
   -5.3930   -0.1903   -0.3643 C   0  0  2  0  0  0
   -4.5626   -1.4644   -0.0758 C   0  0  0  0  0  0
   -4.6362   -2.0407    1.3596 C   0  0  0  0  0  0
   -4.1167   -1.1406    2.4993 C   0  0  0  0  0  0
   -2.5975   -1.1652    2.6652 C   0  0  0  0  0  0
   -2.0718   -1.6047    3.6879 O   0  0  0  0  0  0
   -1.9519   -0.6528    1.6133 O   0  0  0  0  0  0
   -0.5364   -0.5426    1.6306 C   0  0  0  0  0  0
   -0.0678    0.1256    0.3283 C   0  0  2  0  0  0
    1.3926    0.1021    0.2923 N   0  0  0  0  0  0
    2.1343    0.2122   -0.8218 C   0  0  0  0  0  0
    1.6470    0.2979   -1.9506 O   0  0  0  0  0  0
    3.6570    0.2490   -0.6258 C   0  0  2  0  0  0
    4.1834    1.6006   -1.1549 C   0  0  0  0  0  0
    5.6618    1.8348   -0.9000 C   0  0  0  0  0  0
    6.0970    2.2986    0.3591 C   0  0  0  0  0  0
    7.4687    2.5099    0.5997 C   0  0  0  0  0  0
    8.4098    2.2579   -0.4174 C   0  0  0  0  0  0
    7.9789    1.7946   -1.6755 C   0  0  0  0  0  0
    6.6074    1.5838   -1.9169 C   0  0  0  0  0  0
    4.2705   -0.8259   -1.3999 N   0  0  0  0  0  0
    4.3855   -2.1400   -0.9813 C   0  0  0  0  0  0
    3.9898   -2.5939    0.0928 O   0  0  0  0  0  0
    5.0088   -2.8402   -1.9579 O   0  0  0  0  0  0
    5.3019   -4.2427   -1.8878 C   0  0  0  0  0  0
    4.0095   -5.0834   -1.7973 C   0  0  0  0  0  0
    6.2725   -4.5594   -0.7289 C   0  0  0  0  0  0
    6.0021   -4.5486   -3.2233 C   0  0  0  0  0  0
   -0.5600    1.5807    0.3329 C   0  0  0  0  0  0
    0.0286    2.4449    0.9846 O   0  0  0  0  0  0
   -1.6528    1.8190   -0.4056 N   0  0  0  0  0  0
   -2.2661    3.1225   -0.6523 C   0  0  1  0  0  0
   -2.1736    3.4552   -2.1665 C   0  0  0  0  0  0
   -0.7571    3.3687   -2.7866 C   0  0  0  0  0  0
    0.2381    4.3758   -2.1696 C   0  0  0  0  0  0
    1.6345    4.2416   -2.7978 C   0  0  0  0  0  0
    1.5794    4.4135   -4.3228 C   0  0  0  0  0  0
    0.5823    3.4288   -4.9522 C   0  0  0  0  0  0
   -0.8114    3.5610   -4.3155 C   0  0  0  0  0  0
   -3.7055    3.1604   -0.0679 C   0  0  1  0  0  0
   -4.2457    4.4534   -0.2623 O   0  0  0  0  0  0
   -4.6525    2.0991   -0.6501 C   0  0  0  0  0  0
   -5.3084    2.3075   -1.6726 O   0  0  0  0  0  0
   -4.6459    0.9484    0.0638 O   0  0  0  0  0  0
   -0.4706   -0.4168   -0.5299 H   0  0  0  0  0  0
   -1.7053    3.8900   -0.1177 H   0  0  0  0  0  0
   -3.6476    2.9965    1.0090 H   0  0  0  0  0  0
  -11.1729    1.5682    0.1630 H   0  0  0  0  0  0
   -9.8485    2.7209    0.0253 H   0  0  0  0  0  0
  -10.2490    1.6709   -1.3334 H   0  0  0  0  0  0
   -9.1810    0.7022    1.3740 H   0  0  0  0  0  0
   -9.5770   -0.3344    0.0248 H   0  0  0  0  0  0
   -7.8071    0.7934   -1.3562 H   0  0  0  0  0  0
   -7.4221    1.8264    0.0028 H   0  0  0  0  0  0
   -6.7381   -0.1489    1.3470 H   0  0  0  0  0  0
   -7.2421   -1.2116    0.0577 H   0  0  0  0  0  0
   -5.5043   -0.1465   -1.4489 H   0  0  0  0  0  0
   -4.9249   -2.2445   -0.7461 H   0  0  0  0  0  0
   -3.5258   -1.3021   -0.3711 H   0  0  0  0  0  0
   -5.6663   -2.3176    1.5832 H   0  0  0  0  0  0
   -4.0911   -2.9855    1.3789 H   0  0  0  0  0  0
   -4.4542   -0.1125    2.3750 H   0  0  0  0  0  0
   -4.5475   -1.4867    3.4393 H   0  0  0  0  0  0
   -0.2122    0.0314    2.5006 H   0  0  0  0  0  0
   -0.1014   -1.5394    1.7163 H   0  0  0  0  0  0
    1.8713    0.0369    1.1790 H   0  0  0  0  0  0
    3.9052    0.1413    0.4321 H   0  0  0  0  0  0
    3.9920    1.6961   -2.2254 H   0  0  0  0  0  0
    3.6369    2.4193   -0.6830 H   0  0  0  0  0  0
    5.3795    2.4916    1.1435 H   0  0  0  0  0  0
    7.7988    2.8649    1.5648 H   0  0  0  0  0  0
    9.4616    2.4192   -0.2324 H   0  0  0  0  0  0
    8.7001    1.6000   -2.4555 H   0  0  0  0  0  0
    6.2841    1.2253   -2.8832 H   0  0  0  0  0  0
    4.6424   -0.6120   -2.3139 H   0  0  0  0  0  0
    3.3173   -4.8305   -2.6013 H   0  0  0  0  0  0
    4.2305   -6.1482   -1.8770 H   0  0  0  0  0  0
    3.4857   -4.9394   -0.8527 H   0  0  0  0  0  0
    7.1665   -3.9370   -0.7808 H   0  0  0  0  0  0
    5.8174   -4.4020    0.2483 H   0  0  0  0  0  0
    6.5944   -5.6006   -0.7635 H   0  0  0  0  0  0
    6.9139   -3.9612   -3.3384 H   0  0  0  0  0  0
    6.2781   -5.6012   -3.2956 H   0  0  0  0  0  0
    5.3558   -4.3201   -4.0717 H   0  0  0  0  0  0
   -2.0670    1.0333   -0.8858 H   0  0  0  0  0  0
   -2.8221    2.7747   -2.7187 H   0  0  0  0  0  0
   -2.5744    4.4536   -2.3443 H   0  0  0  0  0  0
   -0.3674    2.3649   -2.6141 H   0  0  0  0  0  0
   -0.1311    5.3932   -2.3063 H   0  0  0  0  0  0
    0.3267    4.2227   -1.0952 H   0  0  0  0  0  0
    2.3119    4.9770   -2.3631 H   0  0  0  0  0  0
    2.0468    3.2615   -2.5564 H   0  0  0  0  0  0
    1.2877    5.4361   -4.5653 H   0  0  0  0  0  0
    2.5712    4.2641   -4.7504 H   0  0  0  0  0  0
    0.5182    3.5999   -6.0271 H   0  0  0  0  0  0
    0.9464    2.4087   -4.8224 H   0  0  0  0  0  0
   -1.4824    2.8259   -4.7614 H   0  0  0  0  0  0
   -1.2291    4.5412   -4.5503 H   0  0  0  0  0  0
   -5.0664    4.5075    0.2030 H   0  0  0  0  0  0
  1  2  1  0  0  0
  1 52  1  0  0  0
  1 53  1  0  0  0
  1 54  1  0  0  0
  2  3  1  0  0  0
  2 55  1  0  0  0
  2 56  1  0  0  0
  3  4  1  0  0  0
  3 57  1  0  0  0
  3 58  1  0  0  0
  4  5  1  0  0  0
  4 59  1  0  0  0
  4 60  1  0  0  0
  5 48  1  0  0  0
  5  6  1  0  0  0
  5 61  1  0  0  0
  6  7  1  0  0  0
  6 62  1  0  0  0
  6 63  1  0  0  0
  7  8  1  0  0  0
  7 64  1  0  0  0
  7 65  1  0  0  0
  8  9  1  0  0  0
  8 66  1  0  0  0
  8 67  1  0  0  0
  9 10  2  0  0  0
  9 11  1  0  0  0
 11 12  1  0  0  0
 12 13  1  0  0  0
 12 68  1  0  0  0
 12 69  1  0  0  0
 13 49  1  0  0  0
 13 14  1  0  0  0
 13 33  1  0  0  0
 14 15  1  0  0  0
 14 70  1  0  0  0
 15 16  2  0  0  0
 15 17  1  0  0  0
 17 18  1  0  0  0
 17 25  1  0  0  0
 17 71  1  0  0  0
 18 19  1  0  0  0
 18 72  1  0  0  0
 18 73  1  0  0  0
 19 24  1  0  0  0
 19 20  2  0  0  0
 20 21  1  0  0  0
 20 74  1  0  0  0
 21 22  2  0  0  0
 21 75  1  0  0  0
 22 23  1  0  0  0
 22 76  1  0  0  0
 23 24  2  0  0  0
 23 77  1  0  0  0
 24 78  1  0  0  0
 25 26  1  0  0  0
 25 79  1  0  0  0
 26 27  2  0  0  0
 26 28  1  0  0  0
 28 29  1  0  0  0
 29 30  1  0  0  0
 29 31  1  0  0  0
 29 32  1  0  0  0
 30 80  1  0  0  0
 30 81  1  0  0  0
 30 82  1  0  0  0
 31 83  1  0  0  0
 31 84  1  0  0  0
 31 85  1  0  0  0
 32 86  1  0  0  0
 32 87  1  0  0  0
 32 88  1  0  0  0
 33 34  2  0  0  0
 33 35  1  0  0  0
 35 36  1  0  0  0
 35 89  1  0  0  0
 36 50  1  0  0  0
 36 37  1  0  0  0
 36 44  1  0  0  0
 37 38  1  0  0  0
 37 90  1  0  0  0
 37 91  1  0  0  0
 38 43  1  0  0  0
 38 39  1  0  0  0
 38 92  1  0  0  0
 39 40  1  0  0  0
 39 93  1  0  0  0
 39 94  1  0  0  0
 40 41  1  0  0  0
 40 95  1  0  0  0
 40 96  1  0  0  0
 41 42  1  0  0  0
 41 97  1  0  0  0
 41 98  1  0  0  0
 42 43  1  0  0  0
 42 99  1  0  0  0
 42100  1  0  0  0
 43101  1  0  0  0
 43102  1  0  0  0
 44 51  1  0  0  0
 44 45  1  0  0  0
 44 46  1  0  0  0
 45103  1  0  0  0
 46 47  2  0  0  0
 46 48  1  0  0  0
M  END
$$$$
199
                    3D
 Schrodinger Suite 2021-2.
104110  0  0  1  0            999 V2000
   -0.4874    1.7379   -1.4248 C   0  0  0  0  0  0
   -0.4157    1.3505    0.0656 C   0  0  2  0  0  0
   -0.0289   -0.1444    0.1993 C   0  0  0  0  0  0
    1.4273   -0.4385   -0.2155 C   0  0  0  0  0  0
    1.9011   -1.8418    0.1671 C   0  0  0  0  0  0
    1.1203   -2.7849    0.3053 O   0  0  0  0  0  0
    3.2337   -1.8950    0.3171 O   0  0  0  0  0  0
    3.8642   -3.1115    0.6828 C   0  0  0  0  0  0
    5.2401   -2.8574    1.2103 C   0  0  0  0  0  0
    5.6213   -2.4761    2.4643 C   0  0  0  0  0  0
    6.9945   -2.3841    2.3687 N   0  0  0  0  0  0
    7.9470   -2.0088    3.4036 C   0  0  0  0  0  0
    8.6098   -3.2222    4.1180 C   0  0  1  0  0  0
    9.4431   -3.8371    3.1492 O   0  0  0  0  0  0
    9.5640   -2.7709    5.2602 C   0  0  0  0  0  0
   10.5967   -1.8302    4.8508 N   0  0  0  0  0  0
   11.8094   -2.0405    4.3354 C   0  0  0  0  0  0
   12.4854   -0.9281    4.0843 N   0  0  0  0  0  0
   11.5709   -0.0049    4.5062 C   0  0  0  0  0  0
   10.4238   -0.4931    4.9785 N   0  0  0  0  0  0
    7.5372   -4.1694    4.6957 C   0  0  0  0  0  0
    6.6331   -3.6565    5.6581 C   0  0  0  0  0  0
    5.6202   -4.4617    6.2110 C   0  0  0  0  0  0
    5.4930   -5.8022    5.8098 C   0  0  0  0  0  0
    4.5191   -6.5806    6.3381 F   0  0  0  0  0  0
    6.3806   -6.3316    4.8571 C   0  0  0  0  0  0
    7.3962   -5.5291    4.3004 C   0  0  0  0  0  0
    8.2174   -6.0981    3.3861 F   0  0  0  0  0  0
    7.4240   -2.6840    1.1184 N   0  0  0  0  0  0
    6.3768   -2.9753    0.4122 N   0  0  0  0  0  0
   -1.7340    1.6789    0.8369 C   0  0  1  0  0  0
   -1.6628    1.3077    2.3433 C   0  0  0  0  0  0
   -2.5498    2.2989    3.1108 C   0  0  0  0  0  0
   -3.2762    3.0691    2.0111 C   0  0  1  0  0  0
   -3.9389    4.4185    2.3762 C   0  0  1  0  0  0
   -4.6531    5.0240    1.1263 C   0  0  2  0  0  0
   -3.7359    5.0098   -0.1327 C   0  0  0  0  0  0
   -3.0257    3.6609   -0.4008 C   0  0  2  0  0  0
   -3.9866    2.7287   -0.8615 O   0  0  0  0  0  0
   -2.2564    3.1534    0.8544 C   0  0  2  0  0  0
   -1.0742    4.1198    1.1638 C   0  0  0  0  0  0
   -5.3003    6.4238    1.4373 C   0  0  1  0  0  0
   -4.2215    7.4817    1.7967 C   0  0  0  0  0  0
   -6.0727    7.0171    0.2209 C   0  0  0  0  0  0
   -7.3519    6.2556   -0.1511 C   0  0  0  0  0  0
   -8.3060    6.2192    1.0473 C   0  0  1  0  0  0
   -9.4668    5.4910    0.7074 O   0  0  0  0  0  0
   -7.6202    5.5640    2.2518 C   0  0  0  0  0  0
   -6.2969    6.2765    2.6341 C   0  0  1  0  0  0
   -5.6346    5.6322    3.8763 C   0  0  0  0  0  0
   -4.8938    4.3098    3.5913 C   0  0  1  0  0  0
   -5.8214    3.2520    3.4419 O   0  0  0  0  0  0
    0.3926    1.9244    0.5194 H   0  0  0  0  0  0
   -2.5160    1.0515    0.4070 H   0  0  0  0  0  0
   -4.0823    2.4072    1.6886 H   0  0  0  0  0  0
   -3.1421    5.0895    2.6860 H   0  0  0  0  0  0
   -5.4648    4.3380    0.8868 H   0  0  0  0  0  0
   -2.3395    3.8191   -1.2291 H   0  0  0  0  0  0
   -8.6092    7.2345    1.3066 H   0  0  0  0  0  0
   -6.5926    7.2833    2.9341 H   0  0  0  0  0  0
   -4.3041    4.0624    4.4746 H   0  0  0  0  0  0
   -1.3888    1.3439   -1.8953 H   0  0  0  0  0  0
   -0.4728    2.8163   -1.5610 H   0  0  0  0  0  0
    0.3652    1.3625   -1.9882 H   0  0  0  0  0  0
   -0.1439   -0.4694    1.2326 H   0  0  0  0  0  0
   -0.7176   -0.7574   -0.3839 H   0  0  0  0  0  0
    1.5515   -0.3235   -1.2917 H   0  0  0  0  0  0
    2.0931    0.2839    0.2577 H   0  0  0  0  0  0
    3.2730   -3.6262    1.4417 H   0  0  0  0  0  0
    3.9008   -3.7680   -0.1876 H   0  0  0  0  0  0
    5.0657   -2.2734    3.3679 H   0  0  0  0  0  0
    8.6998   -1.3651    2.9464 H   0  0  0  0  0  0
    7.4238   -1.3821    4.1265 H   0  0  0  0  0  0
   10.0523   -3.1929    2.8225 H   0  0  0  0  0  0
    9.0013   -2.3067    6.0710 H   0  0  0  0  0  0
   10.0569   -3.6400    5.6987 H   0  0  0  0  0  0
   12.2033   -3.0264    4.1361 H   0  0  0  0  0  0
   11.7563    1.0584    4.4654 H   0  0  0  0  0  0
    6.7056   -2.6280    5.9790 H   0  0  0  0  0  0
    4.9400   -4.0491    6.9418 H   0  0  0  0  0  0
    6.2826   -7.3621    4.5483 H   0  0  0  0  0  0
   -1.9999    0.2828    2.5032 H   0  0  0  0  0  0
   -0.6418    1.3733    2.7220 H   0  0  0  0  0  0
   -3.2427    1.7912    3.7825 H   0  0  0  0  0  0
   -1.9384    2.9703    3.7146 H   0  0  0  0  0  0
   -4.3133    5.2632   -1.0212 H   0  0  0  0  0  0
   -2.9803    5.7883   -0.0517 H   0  0  0  0  0  0
   -4.6115    2.5773   -0.1687 H   0  0  0  0  0  0
   -1.3933    5.1379    1.3755 H   0  0  0  0  0  0
   -0.4835    3.7951    2.0199 H   0  0  0  0  0  0
   -0.3904    4.1901    0.3189 H   0  0  0  0  0  0
   -4.6811    8.4342    2.0623 H   0  0  0  0  0  0
   -3.5975    7.2000    2.6419 H   0  0  0  0  0  0
   -3.5553    7.6854    0.9593 H   0  0  0  0  0  0
   -6.3643    8.0429    0.4527 H   0  0  0  0  0  0
   -5.4288    7.1082   -0.6526 H   0  0  0  0  0  0
   -7.8360    6.7469   -0.9959 H   0  0  0  0  0  0
   -7.1085    5.2454   -0.4818 H   0  0  0  0  0  0
   -9.2130    4.6083    0.4850 H   0  0  0  0  0  0
   -8.2992    5.5719    3.1054 H   0  0  0  0  0  0
   -7.4454    4.5165    2.0150 H   0  0  0  0  0  0
   -4.9177    6.3385    4.2946 H   0  0  0  0  0  0
   -6.3744    5.4856    4.6643 H   0  0  0  0  0  0
   -6.3335    3.1869    4.2336 H   0  0  0  0  0  0
  1  2  1  0  0  0
  1 62  1  0  0  0
  1 63  1  0  0  0
  1 64  1  0  0  0
  2 53  1  0  0  0
  2  3  1  0  0  0
  2 31  1  0  0  0
  3  4  1  0  0  0
  3 65  1  0  0  0
  3 66  1  0  0  0
  4  5  1  0  0  0
  4 67  1  0  0  0
  4 68  1  0  0  0
  5  6  2  0  0  0
  5  7  1  0  0  0
  7  8  1  0  0  0
  8  9  1  0  0  0
  8 69  1  0  0  0
  8 70  1  0  0  0
  9 30  1  0  0  0
  9 10  2  0  0  0
 10 11  1  0  0  0
 10 71  1  0  0  0
 11 12  1  0  0  0
 11 29  1  0  0  0
 12 13  1  0  0  0
 12 72  1  0  0  0
 12 73  1  0  0  0
 13 14  1  0  0  0
 13 15  1  0  0  0
 13 21  1  0  0  0
 14 74  1  0  0  0
 15 16  1  0  0  0
 15 75  1  0  0  0
 15 76  1  0  0  0
 16 20  1  0  0  0
 16 17  1  0  0  0
 17 18  2  0  0  0
 17 77  1  0  0  0
 18 19  1  0  0  0
 19 20  2  0  0  0
 19 78  1  0  0  0
 21 27  1  0  0  0
 21 22  2  0  0  0
 22 23  1  0  0  0
 22 79  1  0  0  0
 23 24  2  0  0  0
 23 80  1  0  0  0
 24 25  1  0  0  0
 24 26  1  0  0  0
 26 27  2  0  0  0
 26 81  1  0  0  0
 27 28  1  0  0  0
 29 30  2  0  0  0
 31 54  1  0  0  0
 31 40  1  0  0  0
 31 32  1  0  0  0
 32 33  1  0  0  0
 32 82  1  0  0  0
 32 83  1  0  0  0
 33 34  1  0  0  0
 33 84  1  0  0  0
 33 85  1  0  0  0
 34 55  1  0  0  0
 34 40  1  0  0  0
 34 35  1  0  0  0
 35 56  1  0  0  0
 35 51  1  0  0  0
 35 36  1  0  0  0
 36 57  1  0  0  0
 36 37  1  0  0  0
 36 42  1  0  0  0
 37 38  1  0  0  0
 37 86  1  0  0  0
 37 87  1  0  0  0
 38 58  1  0  0  0
 38 39  1  0  0  0
 38 40  1  0  0  0
 39 88  1  0  0  0
 40 41  1  0  0  0
 41 89  1  0  0  0
 41 90  1  0  0  0
 41 91  1  0  0  0
 42 49  1  0  0  0
 42 43  1  0  0  0
 42 44  1  0  0  0
 43 92  1  0  0  0
 43 93  1  0  0  0
 43 94  1  0  0  0
 44 45  1  0  0  0
 44 95  1  0  0  0
 44 96  1  0  0  0
 45 46  1  0  0  0
 45 97  1  0  0  0
 45 98  1  0  0  0
 46 59  1  0  0  0
 46 47  1  0  0  0
 46 48  1  0  0  0
 47 99  1  0  0  0
 48 49  1  0  0  0
 48100  1  0  0  0
 48101  1  0  0  0
 49 60  1  0  0  0
 49 50  1  0  0  0
 50 51  1  0  0  0
 50102  1  0  0  0
 50103  1  0  0  0
 51 61  1  0  0  0
 51 52  1  0  0  0
 52104  1  0  0  0
M  END
$$$$
200
                    3D
 Schrodinger Suite 2021-2.
104111  0  0  1  0            999 V2000
   -2.8123   -0.4086    1.6062 C   0  0  0  0  0  0
   -1.6832   -1.4461    1.5388 C   0  0  0  0  0  0
   -0.3968   -0.8719    1.3669 O   0  0  0  0  0  0
   -0.0284    0.1209    0.1298 P   0  0  1  0  0  0
   -0.6990    1.4514    0.1354 O   0  0  0  0  0  0
    1.5950    0.1652    0.1948 O   0  0  0  0  0  0
    2.2365    0.8364    1.2600 C   0  0  0  0  0  0
    3.7414    0.6761    1.1749 C   0  0  0  0  0  0
    4.5052   -0.3074    1.6916 C   0  0  0  0  0  0
    4.0824   -1.5666    2.4527 C   0  0  1  0  0  0
    4.5013   -1.4162    3.9254 C   0  0  0  0  0  0
    2.6622   -1.7443    2.4602 O   0  0  0  0  0  0
    2.3059   -2.8534    1.7054 C   0  0  2  0  0  0
    1.0541   -3.3774    2.0474 O   0  0  0  0  0  0
    1.1006   -4.4228    3.0020 C   0  0  1  0  0  0
   -0.2060   -4.3592    3.8033 C   0  0  0  0  0  0
    1.2583   -5.7845    2.2745 C   0  0  0  0  0  0
    2.0079   -5.7133    0.9262 C   0  0  0  0  0  0
    3.4199   -5.0842    0.9836 C   0  0  1  0  0  0
    4.0301   -4.8406   -0.4189 C   0  0  2  0  0  0
    4.2214   -6.1423   -1.2184 C   0  0  0  0  0  0
    5.3723   -4.1050   -0.2997 C   0  0  0  0  0  0
    5.1808   -2.7494    0.3768 C   0  0  0  0  0  0
    4.6511   -2.8825    1.8250 C   0  0  2  0  0  0
    3.4633   -3.8430    1.9228 C   0  0  1  0  0  0
    3.4700   -4.3915    3.2462 O   0  0  0  0  0  0
    2.1419   -4.1987    3.9332 O   0  0  0  0  0  0
   -0.3142   -0.8051   -1.1771 O   0  0  0  0  0  0
    0.3899   -2.0130   -1.3833 C   0  0  0  0  0  0
   -0.1394   -2.7400   -2.5964 C   0  0  0  0  0  0
   -0.5219   -4.0281   -2.5955 C   0  0  0  0  0  0
   -1.0597   -4.7910   -3.7998 C   0  0  1  0  0  0
   -2.4394   -5.3720   -3.4412 C   0  0  0  0  0  0
   -1.2745   -3.9096   -4.9101 O   0  0  0  0  0  0
   -0.4226   -4.2296   -5.9618 C   0  0  2  0  0  0
   -0.9146   -3.8370   -7.2127 O   0  0  0  0  0  0
   -1.6111   -4.8525   -7.9140 C   0  0  1  0  0  0
   -2.6572   -4.1569   -8.7949 C   0  0  0  0  0  0
   -0.6132   -5.6858   -8.7635 C   0  0  0  0  0  0
    0.8182   -5.7699   -8.1869 C   0  0  0  0  0  0
    0.9257   -6.3060   -6.7395 C   0  0  1  0  0  0
    2.3405   -6.1415   -6.1313 C   0  0  2  0  0  0
    3.4222   -6.8946   -6.9265 C   0  0  0  0  0  0
    2.3487   -6.5980   -4.6645 C   0  0  0  0  0  0
    1.3831   -5.7489   -3.8387 C   0  0  0  0  0  0
   -0.0808   -5.8898   -4.3193 C   0  0  2  0  0  0
   -0.2137   -5.7538   -5.8370 C   0  0  1  0  0  0
   -1.3714   -6.5047   -6.2225 O   0  0  0  0  0  0
   -2.3382   -5.6641   -7.0136 O   0  0  0  0  0  0
    2.2611   -2.5253    0.6685 H   0  0  0  0  0  0
    4.0685   -5.8262    1.4528 H   0  0  0  0  0  0
    3.3471   -4.2045   -0.9842 H   0  0  0  0  0  0
    5.4768   -3.2683    2.4254 H   0  0  0  0  0  0
    0.5074   -3.6858   -5.7916 H   0  0  0  0  0  0
    0.7596   -7.3833   -6.7968 H   0  0  0  0  0  0
    2.6015   -5.0824   -6.1517 H   0  0  0  0  0  0
   -0.4163   -6.8818   -4.0122 H   0  0  0  0  0  0
   -3.7585   -0.8865    1.8601 H   0  0  0  0  0  0
   -2.6060    0.3473    2.3642 H   0  0  0  0  0  0
   -2.9523    0.0965    0.6509 H   0  0  0  0  0  0
   -1.6651   -2.0219    2.4637 H   0  0  0  0  0  0
   -1.8720   -2.1570    0.7340 H   0  0  0  0  0  0
    2.0012    1.8998    1.2083 H   0  0  0  0  0  0
    1.8566    0.4904    2.2204 H   0  0  0  0  0  0
    4.2437    1.4618    0.6300 H   0  0  0  0  0  0
    5.5715   -0.2178    1.5436 H   0  0  0  0  0  0
    5.5832   -1.3177    4.0208 H   0  0  0  0  0  0
    4.0483   -0.5302    4.3714 H   0  0  0  0  0  0
    4.1939   -2.2728    4.5247 H   0  0  0  0  0  0
   -0.3083   -3.3975    4.3072 H   0  0  0  0  0  0
   -1.0747   -4.4858    3.1566 H   0  0  0  0  0  0
   -0.2393   -5.1384    4.5652 H   0  0  0  0  0  0
    1.7335   -6.5071    2.9390 H   0  0  0  0  0  0
    0.2695   -6.1919    2.0611 H   0  0  0  0  0  0
    2.0722   -6.7234    0.5223 H   0  0  0  0  0  0
    1.3965   -5.1558    0.2150 H   0  0  0  0  0  0
    4.8768   -6.8380   -0.6936 H   0  0  0  0  0  0
    3.2768   -6.6511   -1.4039 H   0  0  0  0  0  0
    4.6691   -5.9397   -2.1915 H   0  0  0  0  0  0
    6.0897   -4.7066    0.2605 H   0  0  0  0  0  0
    5.8008   -3.9519   -1.2908 H   0  0  0  0  0  0
    6.1300   -2.2125    0.3779 H   0  0  0  0  0  0
    4.4928   -2.1606   -0.2316 H   0  0  0  0  0  0
    1.4484   -1.8015   -1.5363 H   0  0  0  0  0  0
    0.2980   -2.6529   -0.5062 H   0  0  0  0  0  0
   -0.1925   -2.1582   -3.5048 H   0  0  0  0  0  0
   -0.4541   -4.5934   -1.6769 H   0  0  0  0  0  0
   -2.3657   -6.0883   -2.6224 H   0  0  0  0  0  0
   -3.1263   -4.5842   -3.1299 H   0  0  0  0  0  0
   -2.8992   -5.8845   -4.2853 H   0  0  0  0  0  0
   -3.3594   -3.5838   -8.1885 H   0  0  0  0  0  0
   -2.1892   -3.4663   -9.4968 H   0  0  0  0  0  0
   -3.2317   -4.8824   -9.3715 H   0  0  0  0  0  0
   -1.0160   -6.6849   -8.9339 H   0  0  0  0  0  0
   -0.5254   -5.2358   -9.7530 H   0  0  0  0  0  0
    1.4161   -6.3922   -8.8525 H   0  0  0  0  0  0
    1.2694   -4.7778   -8.2341 H   0  0  0  0  0  0
    3.1962   -7.9591   -6.9958 H   0  0  0  0  0  0
    3.5233   -6.5066   -7.9396 H   0  0  0  0  0  0
    4.3981   -6.7937   -6.4513 H   0  0  0  0  0  0
    2.0815   -7.6529   -4.5893 H   0  0  0  0  0  0
    3.3530   -6.5013   -4.2512 H   0  0  0  0  0  0
    1.4511   -6.0313   -2.7882 H   0  0  0  0  0  0
    1.7112   -4.7104   -3.8991 H   0  0  0  0  0  0
  1  2  1  0  0  0
  1 58  1  0  0  0
  1 59  1  0  0  0
  1 60  1  0  0  0
  2  3  1  0  0  0
  2 61  1  0  0  0
  2 62  1  0  0  0
  3  4  1  0  0  0
  4  5  2  0  0  0
  4  6  1  0  0  0
  4 28  1  0  0  0
  6  7  1  0  0  0
  7  8  1  0  0  0
  7 63  1  0  0  0
  7 64  1  0  0  0
  8  9  2  0  0  0
  8 65  1  0  0  0
  9 10  1  0  0  0
  9 66  1  0  0  0
 10 24  1  0  0  0
 10 11  1  0  0  0
 10 12  1  0  0  0
 11 67  1  0  0  0
 11 68  1  0  0  0
 11 69  1  0  0  0
 12 13  1  0  0  0
 13 50  1  0  0  0
 13 25  1  0  0  0
 13 14  1  0  0  0
 14 15  1  0  0  0
 15 27  1  0  0  0
 15 16  1  0  0  0
 15 17  1  0  0  0
 16 70  1  0  0  0
 16 71  1  0  0  0
 16 72  1  0  0  0
 17 18  1  0  0  0
 17 73  1  0  0  0
 17 74  1  0  0  0
 18 19  1  0  0  0
 18 75  1  0  0  0
 18 76  1  0  0  0
 19 51  1  0  0  0
 19 25  1  0  0  0
 19 20  1  0  0  0
 20 52  1  0  0  0
 20 21  1  0  0  0
 20 22  1  0  0  0
 21 77  1  0  0  0
 21 78  1  0  0  0
 21 79  1  0  0  0
 22 23  1  0  0  0
 22 80  1  0  0  0
 22 81  1  0  0  0
 23 24  1  0  0  0
 23 82  1  0  0  0
 23 83  1  0  0  0
 24 53  1  0  0  0
 24 25  1  0  0  0
 25 26  1  0  0  0
 26 27  1  0  0  0
 28 29  1  0  0  0
 29 30  1  0  0  0
 29 84  1  0  0  0
 29 85  1  0  0  0
 30 31  2  0  0  0
 30 86  1  0  0  0
 31 32  1  0  0  0
 31 87  1  0  0  0
 32 46  1  0  0  0
 32 33  1  0  0  0
 32 34  1  0  0  0
 33 88  1  0  0  0
 33 89  1  0  0  0
 33 90  1  0  0  0
 34 35  1  0  0  0
 35 54  1  0  0  0
 35 47  1  0  0  0
 35 36  1  0  0  0
 36 37  1  0  0  0
 37 49  1  0  0  0
 37 38  1  0  0  0
 37 39  1  0  0  0
 38 91  1  0  0  0
 38 92  1  0  0  0
 38 93  1  0  0  0
 39 40  1  0  0  0
 39 94  1  0  0  0
 39 95  1  0  0  0
 40 41  1  0  0  0
 40 96  1  0  0  0
 40 97  1  0  0  0
 41 55  1  0  0  0
 41 47  1  0  0  0
 41 42  1  0  0  0
 42 56  1  0  0  0
 42 43  1  0  0  0
 42 44  1  0  0  0
 43 98  1  0  0  0
 43 99  1  0  0  0
 43100  1  0  0  0
 44 45  1  0  0  0
 44101  1  0  0  0
 44102  1  0  0  0
 45 46  1  0  0  0
 45103  1  0  0  0
 45104  1  0  0  0
 46 57  1  0  0  0
 46 47  1  0  0  0
 47 48  1  0  0  0
 48 49  1  0  0  0
M  END
$$$$
201
                    3D
 Schrodinger Suite 2021-2.
125129  0  0  1  0            999 V2000
    1.5240    5.2765   -1.7326 C   0  0  0  0  0  0
    0.3228    4.3301   -1.9039 C   0  0  0  0  0  0
   -0.3366    4.5543   -3.2735 C   0  0  0  0  0  0
   -0.7162    4.4766   -0.7660 C   0  0  0  0  0  0
   -0.3270    3.7958    0.5738 C   0  0  2  0  0  0
   -0.1146    2.3480    0.5422 N   0  0  0  0  0  0
   -0.8258    1.3833   -0.0680 C   0  0  0  0  0  0
   -1.8825    1.5902   -0.6580 O   0  0  0  0  0  0
   -0.2421   -0.0448   -0.0498 C   0  0  1  0  0  0
    1.2188   -0.0447    0.0601 N   0  0  0  0  0  0
    2.0821    0.2761   -0.9189 C   0  0  0  0  0  0
    1.7332    0.5554   -2.0662 O   0  0  0  0  0  0
    3.5356    0.2332   -0.5388 C   0  0  0  0  0  0
    4.5111   -0.0562   -1.5167 C   0  0  0  0  0  0
    5.8817   -0.0821   -1.1929 C   0  0  0  0  0  0
    6.7601   -0.3810   -2.2133 O   0  0  0  0  0  0
    8.1491   -0.4260   -1.9147 C   0  0  0  0  0  0
    8.9663   -0.7808   -3.1408 C   0  0  0  0  0  0
    9.2108   -2.1326   -3.4617 C   0  0  0  0  0  0
    9.9757   -2.4633   -4.5976 C   0  0  0  0  0  0
   10.4972   -1.4437   -5.4173 C   0  0  0  0  0  0
   10.2512   -0.0931   -5.1024 C   0  0  0  0  0  0
    9.4863    0.2380   -3.9666 C   0  0  0  0  0  0
    6.2736    0.1953    0.1400 C   0  0  0  0  0  0
    5.3204    0.4981    1.1326 C   0  0  0  0  0  0
    5.7999    0.7562    2.3997 O   0  0  0  0  0  0
    4.8636    1.0357    3.4325 C   0  0  0  0  0  0
    5.6259    1.2602    4.7309 C   0  0  0  0  0  0
    4.8552    1.6514    6.0013 C   0  0  0  0  0  0
    6.0474    2.5233    6.4025 C   0  0  0  0  0  0
    6.4366    2.5510    4.9224 C   0  0  0  0  0  0
    3.9488    0.5224    0.7818 C   0  0  0  0  0  0
   -0.8016   -0.7950    1.1723 C   0  0  0  0  0  0
   -0.3838   -2.1510    1.1122 O   0  0  0  0  0  0
   -0.7520   -2.9283    2.2427 C   0  0  0  0  0  0
   -2.2203   -3.3929    2.2109 C   0  0  0  0  0  0
   -2.5578   -4.3195    1.0271 C   0  0  0  0  0  0
   -3.0202   -3.5711   -0.2303 C   0  0  0  0  0  0
   -4.3019   -3.0180    0.0274 O   0  0  0  0  0  0
   -4.7967   -2.1686   -0.9983 C   0  0  0  0  0  0
   -4.2590   -0.7248   -0.8424 C   0  0  1  0  0  0
   -4.7578    0.2600   -1.9207 C   0  0  0  0  0  0
   -5.7764    0.9151   -1.6889 O   0  0  0  0  0  0
   -4.0832    0.3845   -3.0901 N   0  0  0  0  0  0
   -4.5293    1.3495   -4.0985 C   0  0  0  0  0  0
   -2.8838   -0.3817   -3.4426 C   0  0  0  0  0  0
   -4.4099   -0.1698    0.5092 N   0  0  0  0  0  0
   -5.4422   -0.2530    1.3686 C   0  0  0  0  0  0
   -6.4704   -0.8819    1.1205 O   0  0  0  0  0  0
   -5.2962    0.5201    2.7050 C   0  0  2  0  0  0
   -6.6331    0.6360    3.4588 C   0  0  0  0  0  0
   -7.2815    1.8677    2.8489 C   0  0  0  0  0  0
   -6.0935    2.7950    2.5883 C   0  0  0  0  0  0
   -4.9137    1.9265    2.4781 N   0  0  0  0  0  0
   -3.6381    2.3516    2.3038 C   0  0  0  0  0  0
   -2.6863    1.5811    2.4250 O   0  0  0  0  0  0
   -3.3634    3.8255    1.9405 C   0  0  2  0  0  0
   -3.7381    4.2457    0.5092 C   0  0  0  0  0  0
   -2.0628    4.3208    2.4085 N   0  0  0  0  0  0
   -0.8095    4.4075    1.9125 C   0  0  0  0  0  0
    0.0279    4.9979    2.5942 O   0  0  0  0  0  0
    0.7254    4.0698    0.6335 H   0  0  0  0  0  0
   -0.5403   -0.5619   -0.9635 H   0  0  0  0  0  0
   -3.1777   -0.7788   -0.9397 H   0  0  0  0  0  0
   -4.5671    0.0002    3.3287 H   0  0  0  0  0  0
   -4.0243    4.4101    2.5791 H   0  0  0  0  0  0
    1.2064    6.3195   -1.7148 H   0  0  0  0  0  0
    2.0724    5.0803   -0.8121 H   0  0  0  0  0  0
    2.2308    5.1610   -2.5549 H   0  0  0  0  0  0
    0.6995    3.3069   -1.9040 H   0  0  0  0  0  0
   -0.7546    5.5585   -3.3529 H   0  0  0  0  0  0
    0.3834    4.4279   -4.0826 H   0  0  0  0  0  0
   -1.1446    3.8414   -3.4432 H   0  0  0  0  0  0
   -0.9155    5.5359   -0.5983 H   0  0  0  0  0  0
   -1.6506    4.0640   -1.1292 H   0  0  0  0  0  0
    0.7302    2.0397    1.0011 H   0  0  0  0  0  0
    1.6017   -0.2945    0.9603 H   0  0  0  0  0  0
    4.2114   -0.2661   -2.5335 H   0  0  0  0  0  0
    8.4851    0.5409   -1.5360 H   0  0  0  0  0  0
    8.3431   -1.1702   -1.1405 H   0  0  0  0  0  0
    8.8133   -2.9192   -2.8370 H   0  0  0  0  0  0
   10.1631   -3.4991   -4.8395 H   0  0  0  0  0  0
   11.0846   -1.6973   -6.2874 H   0  0  0  0  0  0
   10.6497    0.6890   -5.7319 H   0  0  0  0  0  0
    9.3014    1.2759   -3.7307 H   0  0  0  0  0  0
    7.3130    0.1844    0.4306 H   0  0  0  0  0  0
    4.2778    1.9214    3.1817 H   0  0  0  0  0  0
    4.1735    0.1986    3.5486 H   0  0  0  0  0  0
    6.2617    0.4025    4.9612 H   0  0  0  0  0  0
    3.9583    2.2365    5.7909 H   0  0  0  0  0  0
    4.6448    0.8249    6.6806 H   0  0  0  0  0  0
    5.7840    3.4935    6.8249 H   0  0  0  0  0  0
    6.7723    1.9922    7.0215 H   0  0  0  0  0  0
    7.5047    2.4507    4.7279 H   0  0  0  0  0  0
    6.0099    3.4034    4.3912 H   0  0  0  0  0  0
    3.2010    0.7659    1.5210 H   0  0  0  0  0  0
   -0.4519   -0.3307    2.0965 H   0  0  0  0  0  0
   -1.8888   -0.7553    1.1822 H   0  0  0  0  0  0
   -0.1043   -3.8050    2.2623 H   0  0  0  0  0  0
   -0.5434   -2.3823    3.1640 H   0  0  0  0  0  0
   -2.4043   -3.9465    3.1321 H   0  0  0  0  0  0
   -2.9032   -2.5436    2.2449 H   0  0  0  0  0  0
   -1.6958   -4.9442    0.7906 H   0  0  0  0  0  0
   -3.3494   -5.0082    1.3254 H   0  0  0  0  0  0
   -2.2972   -2.8060   -0.5098 H   0  0  0  0  0  0
   -3.0941   -4.2651   -1.0686 H   0  0  0  0  0  0
   -4.5591   -2.5804   -1.9798 H   0  0  0  0  0  0
   -5.8849   -2.1739   -0.9463 H   0  0  0  0  0  0
   -4.7100    2.3286   -3.6514 H   0  0  0  0  0  0
   -3.7953    1.4977   -4.8910 H   0  0  0  0  0  0
   -5.4568    1.0103   -4.5616 H   0  0  0  0  0  0
   -2.9709   -1.4319   -3.1675 H   0  0  0  0  0  0
   -2.6881   -0.3644   -4.5150 H   0  0  0  0  0  0
   -2.0083    0.0333   -2.9429 H   0  0  0  0  0  0
   -3.6245    0.3811    0.8254 H   0  0  0  0  0  0
   -7.2675   -0.2496    3.4087 H   0  0  0  0  0  0
   -6.4340    0.8193    4.5157 H   0  0  0  0  0  0
   -7.7637    1.6048    1.9062 H   0  0  0  0  0  0
   -8.0355    2.3162    3.4961 H   0  0  0  0  0  0
   -6.2663    3.3831    1.6890 H   0  0  0  0  0  0
   -5.9659    3.4785    3.4288 H   0  0  0  0  0  0
   -4.8094    4.4117    0.4139 H   0  0  0  0  0  0
   -3.2612    5.1828    0.2230 H   0  0  0  0  0  0
   -3.4907    3.4774   -0.2181 H   0  0  0  0  0  0
   -2.1367    4.7484    3.3200 H   0  0  0  0  0  0
  1  2  1  0  0  0
  1 67  1  0  0  0
  1 68  1  0  0  0
  1 69  1  0  0  0
  2  3  1  0  0  0
  2  4  1  0  0  0
  2 70  1  0  0  0
  3 71  1  0  0  0
  3 72  1  0  0  0
  3 73  1  0  0  0
  4  5  1  0  0  0
  4 74  1  0  0  0
  4 75  1  0  0  0
  5 62  1  0  0  0
  5 60  1  0  0  0
  5  6  1  0  0  0
  6  7  1  0  0  0
  6 76  1  0  0  0
  7  8  2  0  0  0
  7  9  1  0  0  0
  9 63  1  0  0  0
  9 10  1  0  0  0
  9 33  1  0  0  0
 10 11  1  0  0  0
 10 77  1  0  0  0
 11 12  2  0  0  0
 11 13  1  0  0  0
 13 32  1  0  0  0
 13 14  2  0  0  0
 14 15  1  0  0  0
 14 78  1  0  0  0
 15 16  1  0  0  0
 15 24  2  0  0  0
 16 17  1  0  0  0
 17 18  1  0  0  0
 17 79  1  0  0  0
 17 80  1  0  0  0
 18 23  1  0  0  0
 18 19  2  0  0  0
 19 20  1  0  0  0
 19 81  1  0  0  0
 20 21  2  0  0  0
 20 82  1  0  0  0
 21 22  1  0  0  0
 21 83  1  0  0  0
 22 23  2  0  0  0
 22 84  1  0  0  0
 23 85  1  0  0  0
 24 25  1  0  0  0
 24 86  1  0  0  0
 25 26  1  0  0  0
 25 32  2  0  0  0
 26 27  1  0  0  0
 27 28  1  0  0  0
 27 87  1  0  0  0
 27 88  1  0  0  0
 28 31  1  0  0  0
 28 29  1  0  0  0
 28 89  1  0  0  0
 29 30  1  0  0  0
 29 90  1  0  0  0
 29 91  1  0  0  0
 30 31  1  0  0  0
 30 92  1  0  0  0
 30 93  1  0  0  0
 31 94  1  0  0  0
 31 95  1  0  0  0
 32 96  1  0  0  0
 33 34  1  0  0  0
 33 97  1  0  0  0
 33 98  1  0  0  0
 34 35  1  0  0  0
 35 36  1  0  0  0
 35 99  1  0  0  0
 35100  1  0  0  0
 36 37  1  0  0  0
 36101  1  0  0  0
 36102  1  0  0  0
 37 38  1  0  0  0
 37103  1  0  0  0
 37104  1  0  0  0
 38 39  1  0  0  0
 38105  1  0  0  0
 38106  1  0  0  0
 39 40  1  0  0  0
 40 41  1  0  0  0
 40107  1  0  0  0
 40108  1  0  0  0
 41 64  1  0  0  0
 41 42  1  0  0  0
 41 47  1  0  0  0
 42 43  2  0  0  0
 42 44  1  0  0  0
 44 45  1  0  0  0
 44 46  1  0  0  0
 45109  1  0  0  0
 45110  1  0  0  0
 45111  1  0  0  0
 46112  1  0  0  0
 46113  1  0  0  0
 46114  1  0  0  0
 47 48  1  0  0  0
 47115  1  0  0  0
 48 49  2  0  0  0
 48 50  1  0  0  0
 50 65  1  0  0  0
 50 54  1  0  0  0
 50 51  1  0  0  0
 51 52  1  0  0  0
 51116  1  0  0  0
 51117  1  0  0  0
 52 53  1  0  0  0
 52118  1  0  0  0
 52119  1  0  0  0
 53 54  1  0  0  0
 53120  1  0  0  0
 53121  1  0  0  0
 54 55  1  0  0  0
 55 56  2  0  0  0
 55 57  1  0  0  0
 57 66  1  0  0  0
 57 58  1  0  0  0
 57 59  1  0  0  0
 58122  1  0  0  0
 58123  1  0  0  0
 58124  1  0  0  0
 59 60  1  0  0  0
 59125  1  0  0  0
 60 61  2  0  0  0
M  END
$$$$
202
                    3D
 Schrodinger Suite 2021-2.
122126  0  0  1  0            999 V2000
   -5.9803   -4.1802    3.3678 C   0  0  0  0  0  0
   -5.3867   -4.6536    2.0341 C   0  0  0  0  0  0
   -5.2425   -3.5151    0.9822 C   0  0  1  0  0  0
   -4.4465   -2.4006    1.4155 O   0  0  0  0  0  0
   -3.2425   -2.5148    2.0399 C   0  0  0  0  0  0
   -2.5475   -3.5304    2.0844 O   0  0  0  0  0  0
   -2.8079   -1.2291    2.7717 C   0  0  1  0  0  0
   -4.0232   -0.4487    3.3284 C   0  0  0  0  0  0
   -2.1125   -1.5717    3.8560 F   0  0  0  0  0  0
   -1.9223   -0.3535    1.8520 C   0  0  0  0  0  0
   -2.2518    0.8107    1.6189 O   0  0  0  0  0  0
   -0.6094   -0.9359    1.2520 C   0  0  2  0  0  0
    0.4112   -1.1729    2.3930 C   0  0  0  0  0  0
   -0.0248   -0.0578    0.0836 C   0  0  1  0  0  0
    1.3940   -0.2500    0.0853 O   0  0  0  0  0  0
    2.2119    0.8323   -0.2394 C   0  0  2  0  0  0
    3.0832    0.4269   -1.2530 O   0  0  0  0  0  0
    4.0206    1.4047   -1.6809 C   0  0  2  0  0  0
    4.7850    0.8387   -2.8832 C   0  0  0  0  0  0
    4.9460    1.7261   -0.5033 C   0  0  0  0  0  0
    4.1145    2.2357    0.6803 C   0  0  2  0  0  0
    5.0266    2.6047    1.8072 N   0  3  0  0  0  0
    4.5626    3.7648    2.6032 C   0  0  0  0  0  0
    5.4764    1.4829    2.6654 C   0  0  0  0  0  0
    3.0132    1.1969    1.0353 C   0  0  1  0  0  0
    2.1512    1.7975    1.9800 O   0  0  0  0  0  0
   -0.6003   -0.3787   -1.3571 C   0  0  2  0  0  0
    0.0732   -1.6604   -1.8979 C   0  0  0  0  0  0
   -0.1565    0.6417   -2.2677 O   0  0  0  0  0  0
   -0.5370    1.9526   -2.2370 C   0  0  0  0  0  0
   -1.3387    2.4391   -1.4421 O   0  0  0  0  0  0
    0.1155    2.6701   -3.2355 N   0  0  0  0  0  0
    1.1308    2.1445   -4.1463 C   0  0  0  0  0  0
    0.5410    1.2088   -5.1806 C   0  0  0  0  0  0
    0.9435   -0.0634   -5.3513 C   0  0  0  0  0  0
    0.3844   -1.0350   -6.3060 C   0  0  0  0  0  0
   -0.5805   -0.6809   -7.2746 C   0  0  0  0  0  0
   -1.1233   -1.6534   -8.1360 C   0  0  0  0  0  0
   -0.7215   -3.0080   -8.0476 C   0  0  0  0  0  0
   -1.2991   -4.0330   -8.9492 C   0  0  0  0  0  0
   -1.0476   -5.3210   -8.6732 N   0  0  0  0  0  0
   -1.5690   -6.2593   -9.4920 C   0  0  0  0  0  0
   -2.3531   -5.9135  -10.6080 C   0  0  0  0  0  0
   -2.5613   -4.5372  -10.8139 C   0  0  0  0  0  0
   -2.0364   -3.6087   -9.9861 N   0  0  0  0  0  0
    0.2447   -3.3576   -7.0736 C   0  0  0  0  0  0
    0.7882   -2.3824   -6.2155 C   0  0  0  0  0  0
   -2.1690   -0.5371   -1.3787 C   0  0  0  0  0  0
   -2.9677   -0.8845   -2.6732 C   0  0  1  0  0  0
   -2.5463   -0.1673   -3.9635 C   0  0  0  0  0  0
   -3.1718   -2.3911   -2.9185 C   0  0  0  0  0  0
   -2.2326   -3.1424   -3.1688 O   0  0  0  0  0  0
   -4.6068   -2.9392   -2.9216 C   0  0  2  0  0  0
   -5.4052   -2.2703   -4.0642 C   0  0  0  0  0  0
   -5.3053   -2.8692   -1.5246 C   0  0  1  0  0  0
   -6.7162   -3.1271   -1.6988 N   0  0  0  0  0  0
   -7.0650   -4.4132   -1.3738 C   0  0  0  0  0  0
   -8.1317   -4.9893   -1.5698 O   0  0  0  0  0  0
   -5.9807   -4.9373   -0.7909 O   0  0  0  0  0  0
   -4.9576   -3.9859   -0.4851 C   0  0  2  0  0  0
   -3.5868   -4.6758   -0.6422 C   0  0  0  0  0  0
   -6.2385   -3.0731    0.9455 H   0  0  0  0  0  0
   -0.8320   -1.9185    0.8384 H   0  0  0  0  0  0
   -0.2021    0.9847    0.3435 H   0  0  0  0  0  0
    1.6482    1.6908   -0.6029 H   0  0  0  0  0  0
    3.4921    2.3067   -1.9936 H   0  0  0  0  0  0
    3.6247    3.1490    0.3365 H   0  0  0  0  0  0
    5.8621    2.9404    1.3497 H   0  0  0  0  0  0
    3.4374    0.2770    1.4385 H   0  0  0  0  0  0
   -3.9720   -0.5148   -2.4697 H   0  0  0  0  0  0
   -4.5317   -3.9910   -3.1987 H   0  0  0  0  0  0
   -5.1821   -1.8763   -1.0909 H   0  0  0  0  0  0
   -6.1302   -5.0228    4.0430 H   0  0  0  0  0  0
   -5.3246   -3.4708    3.8712 H   0  0  0  0  0  0
   -6.9468   -3.6981    3.2195 H   0  0  0  0  0  0
   -4.4413   -5.1627    2.2134 H   0  0  0  0  0  0
   -6.0524   -5.4250    1.6487 H   0  0  0  0  0  0
   -4.6494   -0.0373    2.5351 H   0  0  0  0  0  0
   -4.6546   -1.0856    3.9490 H   0  0  0  0  0  0
   -3.7016    0.3857    3.9532 H   0  0  0  0  0  0
    0.0591   -1.9111    3.1100 H   0  0  0  0  0  0
    1.3540   -1.5811    2.0305 H   0  0  0  0  0  0
    0.6286   -0.2544    2.9376 H   0  0  0  0  0  0
    5.5158    1.5560   -3.2575 H   0  0  0  0  0  0
    5.3173   -0.0755   -2.6191 H   0  0  0  0  0  0
    4.1058    0.6004   -3.7019 H   0  0  0  0  0  0
    5.5058    0.8330   -0.2241 H   0  0  0  0  0  0
    5.6783    2.4779   -0.8008 H   0  0  0  0  0  0
    3.6814    3.5225    3.1967 H   0  0  0  0  0  0
    5.3455    4.0900    3.2892 H   0  0  0  0  0  0
    4.3226    4.6113    1.9591 H   0  0  0  0  0  0
    4.6666    1.1114    3.2942 H   0  0  0  0  0  0
    5.8601    0.6549    2.0697 H   0  0  0  0  0  0
    6.2813    1.8124    3.3232 H   0  0  0  0  0  0
    1.4479    1.1938    2.1674 H   0  0  0  0  0  0
   -0.2335   -2.5441   -1.3382 H   0  0  0  0  0  0
   -0.1631   -1.8211   -2.9476 H   0  0  0  0  0  0
    1.1608   -1.6114   -1.8638 H   0  0  0  0  0  0
   -0.1174    3.6509   -3.2980 H   0  0  0  0  0  0
    1.6018    2.9819   -4.6609 H   0  0  0  0  0  0
    1.9129    1.6394   -3.5824 H   0  0  0  0  0  0
   -0.2527    1.6249   -5.7817 H   0  0  0  0  0  0
    1.7462   -0.4279   -4.7261 H   0  0  0  0  0  0
   -0.9226    0.3377   -7.3729 H   0  0  0  0  0  0
   -1.8608   -1.3385   -8.8594 H   0  0  0  0  0  0
   -1.3579   -7.2913   -9.2555 H   0  0  0  0  0  0
   -2.7704   -6.6601  -11.2670 H   0  0  0  0  0  0
   -3.1499   -4.1791  -11.6455 H   0  0  0  0  0  0
    0.5850   -4.3771   -6.9685 H   0  0  0  0  0  0
    1.5164   -2.6803   -5.4750 H   0  0  0  0  0  0
   -2.4352   -1.3137   -0.6642 H   0  0  0  0  0  0
   -2.6229    0.3617   -0.9673 H   0  0  0  0  0  0
   -3.1981   -0.4261   -4.7979 H   0  0  0  0  0  0
   -2.5968    0.9146   -3.8501 H   0  0  0  0  0  0
   -1.5363   -0.4399   -4.2537 H   0  0  0  0  0  0
   -4.8237   -2.2209   -4.9857 H   0  0  0  0  0  0
   -6.3065   -2.8357   -4.3018 H   0  0  0  0  0  0
   -5.7098   -1.2556   -3.8060 H   0  0  0  0  0  0
   -7.3575   -2.5255   -2.1954 H   0  0  0  0  0  0
   -2.7651   -3.9708   -0.5230 H   0  0  0  0  0  0
   -3.4524   -5.4649    0.0968 H   0  0  0  0  0  0
   -3.4805   -5.1485   -1.6180 H   0  0  0  0  0  0
  1  2  1  0  0  0
  1 73  1  0  0  0
  1 74  1  0  0  0
  1 75  1  0  0  0
  2  3  1  0  0  0
  2 76  1  0  0  0
  2 77  1  0  0  0
  3 62  1  0  0  0
  3 60  1  0  0  0
  3  4  1  0  0  0
  4  5  1  0  0  0
  5  6  2  0  0  0
  5  7  1  0  0  0
  7  8  1  0  0  0
  7  9  1  0  0  0
  7 10  1  0  0  0
  8 78  1  0  0  0
  8 79  1  0  0  0
  8 80  1  0  0  0
 10 11  2  0  0  0
 10 12  1  0  0  0
 12 63  1  0  0  0
 12 13  1  0  0  0
 12 14  1  0  0  0
 13 81  1  0  0  0
 13 82  1  0  0  0
 13 83  1  0  0  0
 14 64  1  0  0  0
 14 15  1  0  0  0
 14 27  1  0  0  0
 15 16  1  0  0  0
 16 65  1  0  0  0
 16 25  1  0  0  0
 16 17  1  0  0  0
 17 18  1  0  0  0
 18 66  1  0  0  0
 18 19  1  0  0  0
 18 20  1  0  0  0
 19 84  1  0  0  0
 19 85  1  0  0  0
 19 86  1  0  0  0
 20 21  1  0  0  0
 20 87  1  0  0  0
 20 88  1  0  0  0
 21 67  1  0  0  0
 21 22  1  0  0  0
 21 25  1  0  0  0
 22 68  1  0  0  0
 22 23  1  0  0  0
 22 24  1  0  0  0
 23 89  1  0  0  0
 23 90  1  0  0  0
 23 91  1  0  0  0
 24 92  1  0  0  0
 24 93  1  0  0  0
 24 94  1  0  0  0
 25 69  1  0  0  0
 25 26  1  0  0  0
 26 95  1  0  0  0
 27 28  1  0  0  0
 27 29  1  0  0  0
 27 48  1  0  0  0
 28 96  1  0  0  0
 28 97  1  0  0  0
 28 98  1  0  0  0
 29 30  1  0  0  0
 30 31  2  0  0  0
 30 32  1  0  0  0
 32 33  1  0  0  0
 32 99  1  0  0  0
 33 34  1  0  0  0
 33100  1  0  0  0
 33101  1  0  0  0
 34 35  2  0  0  0
 34102  1  0  0  0
 35 36  1  0  0  0
 35103  1  0  0  0
 36 47  1  0  0  0
 36 37  2  0  0  0
 37 38  1  0  0  0
 37104  1  0  0  0
 38 39  2  0  0  0
 38105  1  0  0  0
 39 40  1  0  0  0
 39 46  1  0  0  0
 40 45  1  0  0  0
 40 41  2  0  0  0
 41 42  1  0  0  0
 42 43  2  0  0  0
 42106  1  0  0  0
 43 44  1  0  0  0
 43107  1  0  0  0
 44 45  2  0  0  0
 44108  1  0  0  0
 46 47  2  0  0  0
 46109  1  0  0  0
 47110  1  0  0  0
 48 49  1  0  0  0
 48111  1  0  0  0
 48112  1  0  0  0
 49 70  1  0  0  0
 49 50  1  0  0  0
 49 51  1  0  0  0
 50113  1  0  0  0
 50114  1  0  0  0
 50115  1  0  0  0
 51 52  2  0  0  0
 51 53  1  0  0  0
 53 71  1  0  0  0
 53 54  1  0  0  0
 53 55  1  0  0  0
 54116  1  0  0  0
 54117  1  0  0  0
 54118  1  0  0  0
 55 72  1  0  0  0
 55 60  1  0  0  0
 55 56  1  0  0  0
 56 57  1  0  0  0
 56119  1  0  0  0
 57 58  2  0  0  0
 57 59  1  0  0  0
 59 60  1  0  0  0
 60 61  1  0  0  0
 61120  1  0  0  0
 61121  1  0  0  0
 61122  1  0  0  0
M  CHG  1  22   1
M  END
$$$$
203
                    3D
 Schrodinger Suite 2021-2.
 97101  0  0  1  0            999 V2000
   -3.3386   -5.1053    1.4537 C   0  0  0  0  0  0
   -3.4410   -3.8734    0.9339 C   0  0  0  0  0  0
   -2.5005   -2.7506    1.2047 C   0  0  2  0  0  0
   -2.9804   -1.3197    1.1429 C   0  0  0  0  0  0
   -1.9659   -1.8142    0.1308 C   0  0  1  0  0  0
   -0.5959   -1.4106    0.2411 N   0  0  0  0  0  0
   -0.0441   -0.2817   -0.2420 C   0  0  0  0  0  0
   -0.6920    0.5864   -0.8252 O   0  0  0  0  0  0
    1.4748   -0.0850   -0.0440 C   0  0  2  0  0  0
    2.2012   -0.5989   -1.3003 C   0  0  0  0  0  0
    3.5372   -1.1560   -0.8167 C   0  0  1  0  0  0
    3.8540   -2.3171   -1.5653 O   0  0  0  0  0  0
    4.6410   -0.0884   -0.9040 C   0  0  0  0  0  0
    4.7883    0.9002    0.0967 C   0  0  0  0  0  0
    5.8120    1.8623    0.0166 C   0  0  0  0  0  0
    6.7192    1.8758   -1.0661 C   0  0  0  0  0  0
    7.7986    2.8844   -1.1396 C   0  0  0  0  0  0
    7.6464    4.1920   -0.6213 C   0  0  0  0  0  0
    8.7218    5.0963   -0.7165 C   0  0  0  0  0  0
    9.9159    4.6690   -1.3248 C   0  0  0  0  0  0
    9.9789    3.3506   -1.8131 C   0  0  0  0  0  0
    8.9518    2.4793   -1.7245 N   0  0  0  0  0  0
    6.5531    0.9020   -2.0776 C   0  0  0  0  0  0
    5.5309   -0.0630   -2.0011 C   0  0  0  0  0  0
    3.2517   -1.5837    0.6330 C   0  0  0  0  0  0
    2.0787   -0.8261    1.0837 N   0  0  0  0  0  0
    1.6901   -0.7108    2.3810 C   0  0  0  0  0  0
    0.7769    0.0450    2.7112 O   0  0  0  0  0  0
    2.4477   -1.5001    3.4761 C   0  0  1  0  0  0
    3.6007   -0.6912    3.8734 N   0  0  0  0  0  0
    4.9149   -1.1202    3.9483 C   0  0  0  0  0  0
    5.3155   -2.2677    3.7526 O   0  0  0  0  0  0
    5.6889   -0.0453    4.2240 O   0  0  0  0  0  0
    7.1228   -0.0594    4.2216 C   0  0  0  0  0  0
    7.6780   -0.4254    2.8270 C   0  0  0  0  0  0
    7.6814   -0.9874    5.3217 C   0  0  0  0  0  0
    7.5135    1.3932    4.5444 C   0  0  0  0  0  0
    1.6299   -1.9958    4.7237 C   0  0  0  0  0  0
    2.4946   -2.9611    5.5655 C   0  0  0  0  0  0
    0.3856   -2.7898    4.2644 C   0  0  0  0  0  0
    1.1656   -0.8444    5.6478 C   0  0  0  0  0  0
   -2.4026   -2.0697   -1.2815 C   0  0  0  0  0  0
   -3.3186   -1.4572   -1.8283 O   0  0  0  0  0  0
   -1.7098   -3.1032   -1.9195 N   0  0  0  0  0  0
   -2.1592   -3.8161   -3.4248 S   0  0  0  0  0  0
   -2.3628   -2.7358   -4.4032 O   0  0  0  0  0  0
   -1.1769   -4.8756   -3.6995 O   0  0  0  0  0  0
   -3.7739   -4.6257   -3.0181 C   0  0  0  0  0  0
   -4.5384   -5.0409   -4.2522 C   0  0  0  0  0  0
   -5.0022   -3.8526   -3.4407 C   0  0  0  0  0  0
   -1.8031   -2.9979    2.0028 H   0  0  0  0  0  0
    1.6860    0.9763    0.0976 H   0  0  0  0  0  0
    2.8132   -2.4129    3.0059 H   0  0  0  0  0  0
   -2.5352   -5.3656    2.1273 H   0  0  0  0  0  0
   -4.0599   -5.8716    1.2108 H   0  0  0  0  0  0
   -4.2634   -3.6647    0.2646 H   0  0  0  0  0  0
   -3.9997   -1.1432    0.8038 H   0  0  0  0  0  0
   -2.6254   -0.6281    1.9047 H   0  0  0  0  0  0
    0.0182   -2.0546    0.7178 H   0  0  0  0  0  0
    1.6229   -1.4063   -1.7566 H   0  0  0  0  0  0
    2.3142    0.1682   -2.0679 H   0  0  0  0  0  0
    3.1423   -2.9329   -1.4835 H   0  0  0  0  0  0
    4.1247    0.9316    0.9470 H   0  0  0  0  0  0
    5.9022    2.5878    0.8114 H   0  0  0  0  0  0
    6.7210    4.5067   -0.1627 H   0  0  0  0  0  0
    8.6311    6.1008   -0.3302 H   0  0  0  0  0  0
   10.7616    5.3346   -1.4163 H   0  0  0  0  0  0
   10.8778    2.9850   -2.2870 H   0  0  0  0  0  0
    7.2150    0.8877   -2.9311 H   0  0  0  0  0  0
    5.4434   -0.7852   -2.7991 H   0  0  0  0  0  0
    2.9667   -2.6369    0.6693 H   0  0  0  0  0  0
    4.1326   -1.4744    1.2632 H   0  0  0  0  0  0
    3.4457    0.2883    4.0636 H   0  0  0  0  0  0
    7.2531    0.2132    2.0523 H   0  0  0  0  0  0
    8.7611   -0.3042    2.7933 H   0  0  0  0  0  0
    7.4665   -1.4589    2.5545 H   0  0  0  0  0  0
    7.2556   -0.7455    6.2959 H   0  0  0  0  0  0
    7.4740   -2.0383    5.1222 H   0  0  0  0  0  0
    8.7642   -0.8885    5.4022 H   0  0  0  0  0  0
    7.1289    1.7004    5.5177 H   0  0  0  0  0  0
    8.5967    1.5187    4.5644 H   0  0  0  0  0  0
    7.1166    2.0855    3.8007 H   0  0  0  0  0  0
    3.3531   -2.4564    6.0084 H   0  0  0  0  0  0
    1.9242   -3.3921    6.3890 H   0  0  0  0  0  0
    2.8725   -3.7891    4.9646 H   0  0  0  0  0  0
   -0.3355   -2.1586    3.7460 H   0  0  0  0  0  0
    0.6581   -3.6025    3.5902 H   0  0  0  0  0  0
   -0.1391   -3.2318    5.1123 H   0  0  0  0  0  0
    0.4562   -0.1746    5.1650 H   0  0  0  0  0  0
    0.6653   -1.2360    6.5342 H   0  0  0  0  0  0
    2.0038   -0.2413    5.9974 H   0  0  0  0  0  0
   -1.0090   -3.6487   -1.4195 H   0  0  0  0  0  0
   -3.7569   -5.2603   -2.1345 H   0  0  0  0  0  0
   -4.0886   -4.8431   -5.2231 H   0  0  0  0  0  0
   -5.1314   -5.9509   -4.1915 H   0  0  0  0  0  0
   -5.8996   -3.9783   -2.8388 H   0  0  0  0  0  0
   -4.8732   -2.8630   -3.8730 H   0  0  0  0  0  0
  1  2  2  0  0  0
  1 54  1  0  0  0
  1 55  1  0  0  0
  2  3  1  0  0  0
  2 56  1  0  0  0
  3 51  1  0  0  0
  3  5  1  0  0  0
  3  4  1  0  0  0
  4  5  1  0  0  0
  4 57  1  0  0  0
  4 58  1  0  0  0
  5  6  1  0  0  0
  5 42  1  0  0  0
  6  7  1  0  0  0
  6 59  1  0  0  0
  7  8  2  0  0  0
  7  9  1  0  0  0
  9 52  1  0  0  0
  9 26  1  0  0  0
  9 10  1  0  0  0
 10 11  1  0  0  0
 10 60  1  0  0  0
 10 61  1  0  0  0
 11 12  1  0  0  0
 11 13  1  0  0  0
 11 25  1  0  0  0
 12 62  1  0  0  0
 13 24  1  0  0  0
 13 14  2  0  0  0
 14 15  1  0  0  0
 14 63  1  0  0  0
 15 16  2  0  0  0
 15 64  1  0  0  0
 16 17  1  0  0  0
 16 23  1  0  0  0
 17 22  1  0  0  0
 17 18  2  0  0  0
 18 19  1  0  0  0
 18 65  1  0  0  0
 19 20  2  0  0  0
 19 66  1  0  0  0
 20 21  1  0  0  0
 20 67  1  0  0  0
 21 22  2  0  0  0
 21 68  1  0  0  0
 23 24  2  0  0  0
 23 69  1  0  0  0
 24 70  1  0  0  0
 25 26  1  0  0  0
 25 71  1  0  0  0
 25 72  1  0  0  0
 26 27  1  0  0  0
 27 28  2  0  0  0
 27 29  1  0  0  0
 29 53  1  0  0  0
 29 30  1  0  0  0
 29 38  1  0  0  0
 30 31  1  0  0  0
 30 73  1  0  0  0
 31 32  2  0  0  0
 31 33  1  0  0  0
 33 34  1  0  0  0
 34 35  1  0  0  0
 34 36  1  0  0  0
 34 37  1  0  0  0
 35 74  1  0  0  0
 35 75  1  0  0  0
 35 76  1  0  0  0
 36 77  1  0  0  0
 36 78  1  0  0  0
 36 79  1  0  0  0
 37 80  1  0  0  0
 37 81  1  0  0  0
 37 82  1  0  0  0
 38 39  1  0  0  0
 38 40  1  0  0  0
 38 41  1  0  0  0
 39 83  1  0  0  0
 39 84  1  0  0  0
 39 85  1  0  0  0
 40 86  1  0  0  0
 40 87  1  0  0  0
 40 88  1  0  0  0
 41 89  1  0  0  0
 41 90  1  0  0  0
 41 91  1  0  0  0
 42 43  2  0  0  0
 42 44  1  0  0  0
 44 45  1  0  0  0
 44 92  1  0  0  0
 45 46  2  0  0  0
 45 47  2  0  0  0
 45 48  1  0  0  0
 48 50  1  0  0  0
 48 49  1  0  0  0
 48 93  1  0  0  0
 49 50  1  0  0  0
 49 94  1  0  0  0
 49 95  1  0  0  0
 50 96  1  0  0  0
 50 97  1  0  0  0
M  END
$$$$
204
                    3D
 Schrodinger Suite 2021-2.
139139  0  0  1  0            999 V2000
   -2.5316    0.5183    0.6137 C   0  0  0  0  0  0
   -1.1854   -0.2134    0.7169 C   0  0  0  0  0  0
   -0.2645   -0.0260   -0.5122 C   0  0  2  0  0  0
   -0.8438   -0.7744   -1.7345 C   0  0  0  0  0  0
    1.2278   -0.3690   -0.1536 C   0  0  2  0  0  0
    2.0348    0.8522   -0.1050 N   0  0  0  0  0  0
    1.9948    1.8463    0.7919 C   0  0  0  0  0  0
    1.2437    1.8637    1.7651 O   0  0  0  0  0  0
    2.9635    3.0044    0.5438 C   0  0  0  0  0  0
    2.2920    4.2511   -0.0715 C   0  0  0  0  0  0
    2.1976    4.2644   -1.6131 C   0  0  0  0  0  0
    1.1082    3.3543   -2.2102 C   0  0  0  0  0  0
    0.8615    3.5634   -3.7118 C   0  0  0  0  0  0
    2.0244    3.0903   -4.6034 C   0  0  0  0  0  0
    1.7845    3.2755   -6.1131 C   0  0  0  0  0  0
    0.8512    2.2949   -6.6582 N   0  0  0  0  0  0
   -0.4785    2.4432   -6.7532 C   0  0  0  0  0  0
   -1.0605    3.4652   -6.3888 O   0  0  0  0  0  0
   -1.2823    1.2962   -7.4024 C   0  0  2  0  0  0
   -2.0074    0.3287   -6.4091 C   0  0  0  0  0  0
   -2.9672   -0.6344   -7.1315 C   0  0  0  0  0  0
   -2.8094    1.0736   -5.3210 C   0  0  0  0  0  0
   -0.6198    0.7680   -8.6401 N   0  0  0  0  0  0
   -0.7007    1.7222   -9.7684 C   0  0  0  0  0  0
    0.1655   -0.3328   -8.8823 C   0  0  0  0  0  0
    0.7950   -0.4168   -9.9398 O   0  0  0  0  0  0
    0.3604   -1.5215   -7.9055 C   0  0  1  0  0  0
   -0.1586   -2.8879   -8.4657 C   0  0  1  0  0  0
    0.6011   -3.4134   -9.7056 C   0  0  0  0  0  0
   -0.2020   -3.9920   -7.3838 C   0  0  0  0  0  0
   -1.2608   -3.7790   -6.2906 C   0  0  0  0  0  0
    1.7533   -1.6671   -7.6214 O   0  0  0  0  0  0
    2.3501   -1.0493   -6.5789 C   0  0  0  0  0  0
    1.7654   -0.3663   -5.7394 O   0  0  0  0  0  0
    3.8864   -1.2646   -6.5561 C   0  0  2  0  0  0
    4.6337   -0.6959   -7.8274 C   0  0  0  0  0  0
    4.3829    0.8206   -7.9714 C   0  0  0  0  0  0
    6.1567   -0.9396   -7.8232 C   0  0  0  0  0  0
    4.1542   -1.2528   -9.0382 O   0  0  0  0  0  0
    4.2780   -2.6566   -6.1909 N   0  0  0  0  0  0
    4.0354   -3.7301   -7.1681 C   0  0  0  0  0  0
    4.9062   -3.0144   -5.0328 C   0  0  0  0  0  0
    5.4241   -4.1270   -4.9035 O   0  0  0  0  0  0
    4.9371   -2.0588   -3.8113 C   0  0  2  0  0  0
    6.1410   -1.0879   -3.9637 C   0  0  0  0  0  0
    6.0746    0.2375   -3.1615 C   0  0  0  0  0  0
    5.9955    0.0558   -1.6368 C   0  0  0  0  0  0
    4.9782    1.1868   -3.6678 C   0  0  0  0  0  0
    5.1880   -2.7916   -2.5619 N   0  0  0  0  0  0
    4.4343   -3.3911   -1.6160 C   0  0  0  0  0  0
    5.0170   -3.8155   -0.6183 O   0  0  0  0  0  0
    2.8952   -3.5970   -1.6742 C   0  0  2  0  0  0
    2.2269   -4.1187   -2.9920 C   0  0  0  0  0  0
    1.4394   -3.1118   -3.8329 C   0  0  0  0  0  0
    1.3014   -5.3195   -2.7120 C   0  0  0  0  0  0
    2.1189   -2.6490   -0.8248 N   0  0  0  0  0  0
    1.4778   -3.2267    0.3673 C   0  0  0  0  0  0
    1.9645   -1.3300   -1.1205 C   0  0  0  0  0  0
    2.4250   -0.8320   -2.1441 O   0  0  0  0  0  0
   -0.3095    1.0316   -0.7758 H   0  0  0  0  0  0
    1.2797   -0.7703    0.8577 H   0  0  0  0  0  0
   -2.1521    1.8230   -7.7985 H   0  0  0  0  0  0
   -0.1595   -1.3495   -6.9854 H   0  0  0  0  0  0
   -1.1858   -2.7464   -8.7996 H   0  0  0  0  0  0
    4.2361   -0.6237   -5.7524 H   0  0  0  0  0  0
    4.0120   -1.5046   -3.7695 H   0  0  0  0  0  0
    2.8933   -4.5177   -1.0921 H   0  0  0  0  0  0
   -3.0952    0.4154    1.5411 H   0  0  0  0  0  0
   -2.3876    1.5840    0.4335 H   0  0  0  0  0  0
   -3.1527    0.1209   -0.1882 H   0  0  0  0  0  0
   -0.6873    0.1574    1.6116 H   0  0  0  0  0  0
   -1.3574   -1.2753    0.8947 H   0  0  0  0  0  0
   -0.8727   -1.8519   -1.5705 H   0  0  0  0  0  0
   -1.8595   -0.4511   -1.9589 H   0  0  0  0  0  0
   -0.2621   -0.5775   -2.6354 H   0  0  0  0  0  0
    2.6986    0.9536   -0.8597 H   0  0  0  0  0  0
    3.3876    3.2751    1.5116 H   0  0  0  0  0  0
    3.8054    2.6773   -0.0685 H   0  0  0  0  0  0
    1.3058    4.4153    0.3658 H   0  0  0  0  0  0
    2.8831    5.1178    0.2267 H   0  0  0  0  0  0
    1.9885    5.2890   -1.9228 H   0  0  0  0  0  0
    3.1706    4.0175   -2.0385 H   0  0  0  0  0  0
    1.3612    2.3091   -2.0602 H   0  0  0  0  0  0
    0.1722    3.5255   -1.6776 H   0  0  0  0  0  0
   -0.0373    3.0066   -3.9734 H   0  0  0  0  0  0
    0.6391    4.6121   -3.9106 H   0  0  0  0  0  0
    2.9245    3.6429   -4.3349 H   0  0  0  0  0  0
    2.2396    2.0421   -4.3973 H   0  0  0  0  0  0
    1.4592    4.2936   -6.3324 H   0  0  0  0  0  0
    2.7288    3.1404   -6.6402 H   0  0  0  0  0  0
    1.2499    1.4279   -6.9877 H   0  0  0  0  0  0
   -1.2817   -0.2276   -5.8250 H   0  0  0  0  0  0
   -3.7890   -0.0907   -7.5984 H   0  0  0  0  0  0
   -2.4749   -1.2004   -7.9157 H   0  0  0  0  0  0
   -3.4008   -1.3527   -6.4353 H   0  0  0  0  0  0
   -3.5430    1.7515   -5.7585 H   0  0  0  0  0  0
   -3.3483    0.3721   -4.6833 H   0  0  0  0  0  0
   -2.1630    1.6551   -4.6635 H   0  0  0  0  0  0
   -1.1122    1.2389  -10.6564 H   0  0  0  0  0  0
   -1.3285    2.5922   -9.5740 H   0  0  0  0  0  0
    0.2875    2.1133  -10.0185 H   0  0  0  0  0  0
    1.6715   -3.4982   -9.5235 H   0  0  0  0  0  0
    0.2434   -4.4021   -9.9936 H   0  0  0  0  0  0
    0.4580   -2.7800  -10.5791 H   0  0  0  0  0  0
   -0.4234   -4.9487   -7.8578 H   0  0  0  0  0  0
    0.7846   -4.1122   -6.9372 H   0  0  0  0  0  0
   -1.2730   -4.6241   -5.6021 H   0  0  0  0  0  0
   -1.0719   -2.8855   -5.6971 H   0  0  0  0  0  0
   -2.2581   -3.6919   -6.7215 H   0  0  0  0  0  0
    4.7111    1.3611   -7.0838 H   0  0  0  0  0  0
    4.9248    1.2358   -8.8220 H   0  0  0  0  0  0
    3.3280    1.0516   -8.1247 H   0  0  0  0  0  0
    6.6557   -0.3646   -7.0465 H   0  0  0  0  0  0
    6.4097   -1.9906   -7.6863 H   0  0  0  0  0  0
    6.6057   -0.6263   -8.7669 H   0  0  0  0  0  0
    4.6054   -0.8420   -9.7597 H   0  0  0  0  0  0
    3.4989   -4.5592   -6.7037 H   0  0  0  0  0  0
    3.4413   -3.4255   -8.0228 H   0  0  0  0  0  0
    4.9793   -4.1129   -7.5584 H   0  0  0  0  0  0
    7.0651   -1.6097   -3.7073 H   0  0  0  0  0  0
    6.2737   -0.8144   -5.0043 H   0  0  0  0  0  0
    7.0214    0.7443   -3.3528 H   0  0  0  0  0  0
    5.0318   -0.3468   -1.3268 H   0  0  0  0  0  0
    6.7746   -0.6167   -1.2777 H   0  0  0  0  0  0
    6.1248    1.0097   -1.1247 H   0  0  0  0  0  0
    3.9842    0.7718   -3.5144 H   0  0  0  0  0  0
    5.0152    2.1433   -3.1453 H   0  0  0  0  0  0
    5.0932    1.3917   -4.7314 H   0  0  0  0  0  0
    6.1710   -2.8101   -2.3329 H   0  0  0  0  0  0
    3.0192   -4.5142   -3.6250 H   0  0  0  0  0  0
    0.5505   -2.7558   -3.3158 H   0  0  0  0  0  0
    2.0433   -2.2598   -4.1042 H   0  0  0  0  0  0
    1.1139   -3.5687   -4.7637 H   0  0  0  0  0  0
    0.4800   -5.0392   -2.0517 H   0  0  0  0  0  0
    0.8665   -5.7079   -3.6337 H   0  0  0  0  0  0
    1.8413   -6.1431   -2.2437 H   0  0  0  0  0  0
    2.0375   -2.9590    1.2641 H   0  0  0  0  0  0
    0.4523   -2.8744    0.4795 H   0  0  0  0  0  0
    1.4048   -4.3137    0.3411 H   0  0  0  0  0  0
  1  2  1  0  0  0
  1 68  1  0  0  0
  1 69  1  0  0  0
  1 70  1  0  0  0
  2  3  1  0  0  0
  2 71  1  0  0  0
  2 72  1  0  0  0
  3 60  1  0  0  0
  3  4  1  0  0  0
  3  5  1  0  0  0
  4 73  1  0  0  0
  4 74  1  0  0  0
  4 75  1  0  0  0
  5 61  1  0  0  0
  5 58  1  0  0  0
  5  6  1  0  0  0
  6  7  1  0  0  0
  6 76  1  0  0  0
  7  8  2  0  0  0
  7  9  1  0  0  0
  9 10  1  0  0  0
  9 77  1  0  0  0
  9 78  1  0  0  0
 10 11  1  0  0  0
 10 79  1  0  0  0
 10 80  1  0  0  0
 11 12  1  0  0  0
 11 81  1  0  0  0
 11 82  1  0  0  0
 12 13  1  0  0  0
 12 83  1  0  0  0
 12 84  1  0  0  0
 13 14  1  0  0  0
 13 85  1  0  0  0
 13 86  1  0  0  0
 14 15  1  0  0  0
 14 87  1  0  0  0
 14 88  1  0  0  0
 15 16  1  0  0  0
 15 89  1  0  0  0
 15 90  1  0  0  0
 16 17  1  0  0  0
 16 91  1  0  0  0
 17 18  2  0  0  0
 17 19  1  0  0  0
 19 62  1  0  0  0
 19 20  1  0  0  0
 19 23  1  0  0  0
 20 21  1  0  0  0
 20 22  1  0  0  0
 20 92  1  0  0  0
 21 93  1  0  0  0
 21 94  1  0  0  0
 21 95  1  0  0  0
 22 96  1  0  0  0
 22 97  1  0  0  0
 22 98  1  0  0  0
 23 24  1  0  0  0
 23 25  1  0  0  0
 24 99  1  0  0  0
 24100  1  0  0  0
 24101  1  0  0  0
 25 26  2  0  0  0
 25 27  1  0  0  0
 27 63  1  0  0  0
 27 28  1  0  0  0
 27 32  1  0  0  0
 28 64  1  0  0  0
 28 29  1  0  0  0
 28 30  1  0  0  0
 29102  1  0  0  0
 29103  1  0  0  0
 29104  1  0  0  0
 30 31  1  0  0  0
 30105  1  0  0  0
 30106  1  0  0  0
 31107  1  0  0  0
 31108  1  0  0  0
 31109  1  0  0  0
 32 33  1  0  0  0
 33 34  2  0  0  0
 33 35  1  0  0  0
 35 65  1  0  0  0
 35 36  1  0  0  0
 35 40  1  0  0  0
 36 37  1  0  0  0
 36 38  1  0  0  0
 36 39  1  0  0  0
 37110  1  0  0  0
 37111  1  0  0  0
 37112  1  0  0  0
 38113  1  0  0  0
 38114  1  0  0  0
 38115  1  0  0  0
 39116  1  0  0  0
 40 41  1  0  0  0
 40 42  1  0  0  0
 41117  1  0  0  0
 41118  1  0  0  0
 41119  1  0  0  0
 42 43  2  0  0  0
 42 44  1  0  0  0
 44 66  1  0  0  0
 44 45  1  0  0  0
 44 49  1  0  0  0
 45 46  1  0  0  0
 45120  1  0  0  0
 45121  1  0  0  0
 46 47  1  0  0  0
 46 48  1  0  0  0
 46122  1  0  0  0
 47123  1  0  0  0
 47124  1  0  0  0
 47125  1  0  0  0
 48126  1  0  0  0
 48127  1  0  0  0
 48128  1  0  0  0
 49 50  1  0  0  0
 49129  1  0  0  0
 50 51  2  0  0  0
 50 52  1  0  0  0
 52 67  1  0  0  0
 52 53  1  0  0  0
 52 56  1  0  0  0
 53 54  1  0  0  0
 53 55  1  0  0  0
 53130  1  0  0  0
 54131  1  0  0  0
 54132  1  0  0  0
 54133  1  0  0  0
 55134  1  0  0  0
 55135  1  0  0  0
 55136  1  0  0  0
 56 57  1  0  0  0
 56 58  1  0  0  0
 57137  1  0  0  0
 57138  1  0  0  0
 57139  1  0  0  0
 58 59  2  0  0  0
M  END
$$$$
205
                    3D
 Schrodinger Suite 2021-2.
 82 86  0  0  1  0            999 V2000
   -4.9481    1.0504    3.0168 C   0  0  0  0  0  0
   -5.4669    0.7242    1.6068 C   0  0  0  0  0  0
   -4.7371   -0.3648    0.9567 N   0  0  0  0  0  0
   -5.4089   -1.0457   -0.1516 C   0  0  0  0  0  0
   -5.2199   -0.3911   -1.5119 C   0  0  0  0  0  0
   -6.0779    0.6517   -1.9206 C   0  0  0  0  0  0
   -5.8839    1.2844   -3.1644 C   0  0  0  0  0  0
   -4.8266    0.8817   -4.0030 C   0  0  0  0  0  0
   -3.9694   -0.1597   -3.5960 C   0  0  0  0  0  0
   -2.6137   -0.6310   -4.6695 S   0  0  0  0  0  0
   -2.0009   -1.7934   -4.0073 O   0  0  0  0  0  0
   -3.2842   -0.9352   -5.9430 O   0  0  0  0  0  0
   -1.7744    0.5769   -4.6915 O   0  5  0  0  0  0
   -4.1673   -0.8032   -2.3571 C   0  0  0  0  0  0
   -3.3469   -0.2229    0.7638 C   0  0  0  0  0  0
   -2.5364   -1.3798    0.7395 C   0  0  0  0  0  0
   -1.1541   -1.2853    0.4915 C   0  0  0  0  0  0
   -0.5541   -0.0296    0.2681 C   0  0  0  0  0  0
    0.8878    0.0628   -0.0281 C   0  0  0  0  0  0
    1.7478    0.7321    0.7856 C   0  0  0  0  0  0
    3.1642    0.8997    0.4695 C   0  0  0  0  0  0
    3.9878    1.6084    1.2698 C   0  0  0  0  0  0
    3.5464    2.2511    2.4681 C   0  0  0  0  0  0
    4.3390    3.0002    3.1905 N   0  3  0  0  0  0
    5.8202    2.8535    3.1737 C   0  0  0  0  0  0
    6.5294    3.9048    2.3102 C   0  0  0  0  0  0
    3.8455    4.0065    4.1782 C   0  0  0  0  0  0
    2.9165    5.0511    3.5715 C   0  0  0  0  0  0
    3.3680    5.9158    2.5506 C   0  0  0  0  0  0
    2.4912    6.8575    1.9761 C   0  0  0  0  0  0
    1.1555    6.9407    2.4147 C   0  0  0  0  0  0
    0.7068    6.0823    3.4395 C   0  0  0  0  0  0
   -0.9910    6.1281    4.0085 S   0  0  0  0  0  0
   -0.8513    6.2896    5.4641 O   0  0  0  0  0  0
   -1.5824    7.2834    3.3158 O   0  0  0  0  0  0
   -1.5133    4.8203    3.5826 O   0  5  0  0  0  0
    1.5842    5.1490    4.0239 C   0  0  0  0  0  0
    2.1806    2.0274    2.8215 C   0  0  0  0  0  0
    1.3245    1.3294    2.0491 C   0  0  0  0  0  0
    1.3328   -0.5909   -1.2733 C   0  0  0  0  0  0
    2.1957   -1.7088   -1.2344 C   0  0  0  0  0  0
    2.5960   -2.3424   -2.4270 C   0  0  0  0  0  0
    2.1274   -1.8693   -3.6673 C   0  0  0  0  0  0
    1.2559   -0.7649   -3.7131 C   0  0  0  0  0  0
    0.8568   -0.1316   -2.5204 C   0  0  0  0  0  0
   -1.3602    1.1284    0.2831 C   0  0  0  0  0  0
   -2.7416    1.0353    0.5333 C   0  0  0  0  0  0
   -5.5631    1.8214    3.4811 H   0  0  0  0  0  0
   -4.9806    0.1704    3.6597 H   0  0  0  0  0  0
   -3.9226    1.4189    3.0054 H   0  0  0  0  0  0
   -6.5161    0.4377    1.6850 H   0  0  0  0  0  0
   -5.4472    1.6145    0.9781 H   0  0  0  0  0  0
   -5.0607   -2.0778   -0.2030 H   0  0  0  0  0  0
   -6.4771   -1.1092    0.0580 H   0  0  0  0  0  0
   -6.8819    0.9749   -1.2757 H   0  0  0  0  0  0
   -6.5410    2.0844   -3.4718 H   0  0  0  0  0  0
   -4.6700    1.3727   -4.9523 H   0  0  0  0  0  0
   -3.5060   -1.5948   -2.0380 H   0  0  0  0  0  0
   -2.9758   -2.3531    0.9021 H   0  0  0  0  0  0
   -0.5550   -2.1840    0.4672 H   0  0  0  0  0  0
    3.5836    0.4714   -0.4284 H   0  0  0  0  0  0
    5.0187    1.7225    0.9724 H   0  0  0  0  0  0
    6.1618    2.9136    4.2077 H   0  0  0  0  0  0
    6.0694    1.8454    2.8410 H   0  0  0  0  0  0
    7.6008    3.7080    2.2686 H   0  0  0  0  0  0
    6.1513    3.9032    1.2877 H   0  0  0  0  0  0
    6.3983    4.9064    2.7187 H   0  0  0  0  0  0
    3.3651    3.4631    4.9929 H   0  0  0  0  0  0
    4.7100    4.5189    4.6015 H   0  0  0  0  0  0
    4.3846    5.8569    2.1946 H   0  0  0  0  0  0
    2.8412    7.5121    1.1916 H   0  0  0  0  0  0
    0.4889    7.6575    1.9589 H   0  0  0  0  0  0
    1.2229    4.4951    4.8044 H   0  0  0  0  0  0
    1.8235    2.4138    3.7628 H   0  0  0  0  0  0
    0.3171    1.1955    2.4143 H   0  0  0  0  0  0
    2.5524   -2.0831   -0.2860 H   0  0  0  0  0  0
    3.2584   -3.1945   -2.3898 H   0  0  0  0  0  0
    2.4298   -2.3565   -4.5824 H   0  0  0  0  0  0
    0.8859   -0.4070   -4.6626 H   0  0  0  0  0  0
    0.1800    0.7093   -2.5666 H   0  0  0  0  0  0
   -0.9197    2.0963    0.0933 H   0  0  0  0  0  0
   -3.3277    1.9415    0.5194 H   0  0  0  0  0  0
  1  2  1  0  0  0
  1 48  1  0  0  0
  1 49  1  0  0  0
  1 50  1  0  0  0
  2  3  1  0  0  0
  2 51  1  0  0  0
  2 52  1  0  0  0
  3  4  1  0  0  0
  3 15  1  0  0  0
  4  5  1  0  0  0
  4 53  1  0  0  0
  4 54  1  0  0  0
  5 14  1  0  0  0
  5  6  2  0  0  0
  6  7  1  0  0  0
  6 55  1  0  0  0
  7  8  2  0  0  0
  7 56  1  0  0  0
  8  9  1  0  0  0
  8 57  1  0  0  0
  9 10  1  0  0  0
  9 14  2  0  0  0
 10 11  2  0  0  0
 10 12  2  0  0  0
 10 13  1  0  0  0
 14 58  1  0  0  0
 15 47  1  0  0  0
 15 16  2  0  0  0
 16 17  1  0  0  0
 16 59  1  0  0  0
 17 18  2  0  0  0
 17 60  1  0  0  0
 18 19  1  0  0  0
 18 46  1  0  0  0
 19 20  2  3  0  0
 19 40  1  0  0  0
 20 39  1  0  0  0
 20 21  1  0  0  0
 21 22  2  0  0  0
 21 61  1  0  0  0
 22 23  1  0  0  0
 22 62  1  0  0  0
 23 24  2  3  0  0
 23 38  1  0  0  0
 24 25  1  0  0  0
 24 27  1  0  0  0
 25 26  1  0  0  0
 25 63  1  0  0  0
 25 64  1  0  0  0
 26 65  1  0  0  0
 26 66  1  0  0  0
 26 67  1  0  0  0
 27 28  1  0  0  0
 27 68  1  0  0  0
 27 69  1  0  0  0
 28 37  1  0  0  0
 28 29  2  0  0  0
 29 30  1  0  0  0
 29 70  1  0  0  0
 30 31  2  0  0  0
 30 71  1  0  0  0
 31 32  1  0  0  0
 31 72  1  0  0  0
 32 33  1  0  0  0
 32 37  2  0  0  0
 33 34  2  0  0  0
 33 35  2  0  0  0
 33 36  1  0  0  0
 37 73  1  0  0  0
 38 39  2  0  0  0
 38 74  1  0  0  0
 39 75  1  0  0  0
 40 45  1  0  0  0
 40 41  2  0  0  0
 41 42  1  0  0  0
 41 76  1  0  0  0
 42 43  2  0  0  0
 42 77  1  0  0  0
 43 44  1  0  0  0
 43 78  1  0  0  0
 44 45  2  0  0  0
 44 79  1  0  0  0
 45 80  1  0  0  0
 46 47  2  0  0  0
 46 81  1  0  0  0
 47 82  1  0  0  0
M  CHG  3  13  -1  24   1  36  -1
M  END
$$$$
206
                    3D
 Schrodinger Suite 2021-2.
113118  0  0  1  0            999 V2000
    6.0984   -0.9464    3.7803 C   0  0  0  0  0  0
    5.1419   -2.0764    3.3760 C   0  0  0  0  0  0
    4.0109   -2.2720    4.3825 C   0  0  0  0  0  0
    3.8680   -3.3305    4.9939 O   0  0  0  0  0  0
    3.2248   -1.1851    4.4865 O   0  0  0  0  0  0
    2.0818   -1.1669    5.3446 C   0  0  2  0  0  0
    0.9711   -0.3285    4.6744 C   0  0  2  0  0  0
    0.6258   -0.7784    3.2150 C   0  0  1  0  0  0
    0.3238   -2.1750    3.3162 O   0  0  0  0  0  0
    1.0056   -3.1018    2.6107 C   0  0  0  0  0  0
    0.5345   -4.5182    2.9080 C   0  0  0  0  0  0
    1.9098   -2.8820    1.8066 O   0  0  0  0  0  0
   -0.5711   -0.0504    2.5014 C   0  0  1  0  0  0
   -1.8611   -0.1290    3.3284 C   0  0  0  0  0  0
   -1.7405    0.8971    4.2959 O   0  0  0  0  0  0
   -0.9141    1.9578    3.8196 C   0  0  1  0  0  0
   -1.8895    3.1605    3.8107 C   0  0  0  0  0  0
    0.1926    2.1302    4.9067 C   0  0  2  0  0  0
    0.6189    3.4913    4.9664 O   0  0  0  0  0  0
    0.4938    4.2289    6.0901 C   0  0  0  0  0  0
    1.0092    5.6496    5.9072 C   0  0  0  0  0  0
    0.0245    3.8527    7.1637 O   0  0  0  0  0  0
    1.4155    1.1437    4.9078 C   0  0  2  0  0  0
    2.3854    1.3882    3.8672 O   0  0  0  0  0  0
    3.2718    2.4125    3.8099 C   0  0  0  0  0  0
    4.1240    2.3532    2.5512 C   0  0  0  0  0  0
    3.4252    3.3140    4.6318 O   0  0  0  0  0  0
    2.0840    1.0606    6.3163 C   0  0  0  0  0  0
    2.3718   -0.4219    6.6644 C   0  0  1  0  0  0
    1.4298   -0.9558    7.7714 C   0  0  0  0  0  0
    3.7296   -0.6770    7.0550 O   0  0  0  0  0  0
    4.3573   -0.0522    8.0871 C   0  0  0  0  0  0
    3.8427    0.8277    8.7795 O   0  0  0  0  0  0
    5.7518   -0.5388    8.2895 C   0  0  0  0  0  0
    6.5880    0.1203    9.2203 C   0  0  0  0  0  0
    7.9106   -0.3160    9.4306 C   0  0  0  0  0  0
    8.4124   -1.4178    8.7136 C   0  0  0  0  0  0
    7.5887   -2.0847    7.7881 C   0  0  0  0  0  0
    6.2657   -1.6503    7.5782 C   0  0  0  0  0  0
   -0.3833    1.4880    2.4338 C   0  0  2  0  0  0
   -1.0487    2.1429    1.2005 C   0  0  2  0  0  0
   -0.6963    1.4840   -0.1426 C   0  0  1  0  0  0
    0.2143    2.6821   -0.4295 C   0  0  0  0  0  0
   -0.5637    3.4988    0.6212 C   0  0  1  0  0  0
   -1.6485    4.4713    0.1455 C   0  0  0  0  0  0
    0.3074    4.1520    1.5524 O   0  0  0  0  0  0
    1.2114    5.0843    1.1701 C   0  0  0  0  0  0
    1.9954    5.6555    2.3432 C   0  0  0  0  0  0
    1.4192    5.4685    0.0195 O   0  0  0  0  0  0
   -0.1594    0.0481   -0.1034 C   0  0  1  0  0  0
    1.2536    0.0284    0.0869 O   0  0  0  0  0  0
    2.0626   -0.6292   -0.7698 C   0  0  0  0  0  0
    1.6973   -1.2516   -1.7683 O   0  0  0  0  0  0
    3.5440   -0.5101   -0.3774 C   0  0  2  0  0  0
    4.0542    0.9085   -0.6808 C   0  0  0  0  0  0
    4.4510   -1.5706   -1.0446 C   0  0  0  0  0  0
    4.1816   -3.0157   -0.5981 C   0  0  0  0  0  0
   -0.8055   -0.6579    1.0902 C   0  0  0  0  0  0
   -1.4925   -1.6655    0.9236 O   0  0  0  0  0  0
    1.7332   -2.1832    5.5343 H   0  0  0  0  0  0
    0.0789   -0.4989    5.2760 H   0  0  0  0  0  0
    1.5166   -0.6315    2.6037 H   0  0  0  0  0  0
   -0.3419    1.9177    5.8335 H   0  0  0  0  0  0
    0.6710    1.7120    2.3297 H   0  0  0  0  0  0
   -2.1352    2.1313    1.2884 H   0  0  0  0  0  0
   -1.5690    1.5454   -0.7960 H   0  0  0  0  0  0
   -0.4513   -0.4775   -1.0136 H   0  0  0  0  0  0
    6.8730   -0.8137    3.0251 H   0  0  0  0  0  0
    5.5774    0.0053    3.8876 H   0  0  0  0  0  0
    6.5949   -1.1660    4.7252 H   0  0  0  0  0  0
    4.7028   -1.8561    2.4035 H   0  0  0  0  0  0
    5.6926   -3.0113    3.2713 H   0  0  0  0  0  0
   -0.5545   -4.5672    2.8972 H   0  0  0  0  0  0
    0.9190   -5.2138    2.1617 H   0  0  0  0  0  0
    0.8874   -4.8340    3.8899 H   0  0  0  0  0  0
   -2.7434    0.0800    2.7205 H   0  0  0  0  0  0
   -2.0140   -1.0956    3.8091 H   0  0  0  0  0  0
   -1.4295    4.0674    3.4222 H   0  0  0  0  0  0
   -2.7857    2.9617    3.2242 H   0  0  0  0  0  0
   -2.2308    3.3845    4.8218 H   0  0  0  0  0  0
    2.0770    5.6393    5.6885 H   0  0  0  0  0  0
    0.4896    6.1376    5.0827 H   0  0  0  0  0  0
    0.8473    6.2344    6.8126 H   0  0  0  0  0  0
    4.2346    1.3233    2.2112 H   0  0  0  0  0  0
    3.6582    2.9360    1.7567 H   0  0  0  0  0  0
    5.1168    2.7603    2.7435 H   0  0  0  0  0  0
    2.9871    1.6604    6.3845 H   0  0  0  0  0  0
    1.4237    1.4742    7.0785 H   0  0  0  0  0  0
    0.3802   -0.8594    7.4953 H   0  0  0  0  0  0
    1.6191   -2.0112    7.9694 H   0  0  0  0  0  0
    1.5541   -0.4199    8.7120 H   0  0  0  0  0  0
    6.2253    0.9698    9.7809 H   0  0  0  0  0  0
    8.5402    0.1966   10.1429 H   0  0  0  0  0  0
    9.4268   -1.7521    8.8747 H   0  0  0  0  0  0
    7.9705   -2.9322    7.2384 H   0  0  0  0  0  0
    5.6590   -2.1895    6.8666 H   0  0  0  0  0  0
    1.2546    2.5203   -0.1488 H   0  0  0  0  0  0
    0.1402    3.0660   -1.4473 H   0  0  0  0  0  0
   -2.3718    3.9735   -0.5006 H   0  0  0  0  0  0
   -2.1998    4.8909    0.9872 H   0  0  0  0  0  0
   -1.2324    5.3022   -0.4239 H   0  0  0  0  0  0
    1.8855    5.0264    3.2247 H   0  0  0  0  0  0
    3.0553    5.7185    2.0963 H   0  0  0  0  0  0
    1.6355    6.6552    2.5859 H   0  0  0  0  0  0
    3.5947   -0.6552    0.7023 H   0  0  0  0  0  0
    3.4267    1.6723   -0.2239 H   0  0  0  0  0  0
    5.0640    1.0491   -0.2948 H   0  0  0  0  0  0
    4.0802    1.1001   -1.7543 H   0  0  0  0  0  0
    4.3681   -1.5049   -2.1303 H   0  0  0  0  0  0
    5.4916   -1.3385   -0.8152 H   0  0  0  0  0  0
    4.8684   -3.7041   -1.0906 H   0  0  0  0  0  0
    4.3198   -3.1276    0.4768 H   0  0  0  0  0  0
    3.1690   -3.3364   -0.8415 H   0  0  0  0  0  0
  1  2  1  0  0  0
  1 68  1  0  0  0
  1 69  1  0  0  0
  1 70  1  0  0  0
  2  3  1  0  0  0
  2 71  1  0  0  0
  2 72  1  0  0  0
  3  4  2  0  0  0
  3  5  1  0  0  0
  5  6  1  0  0  0
  6 60  1  0  0  0
  6 29  1  0  0  0
  6  7  1  0  0  0
  7 61  1  0  0  0
  7 23  1  0  0  0
  7  8  1  0  0  0
  8 62  1  0  0  0
  8  9  1  0  0  0
  8 13  1  0  0  0
  9 10  1  0  0  0
 10 11  1  0  0  0
 10 12  2  0  0  0
 11 73  1  0  0  0
 11 74  1  0  0  0
 11 75  1  0  0  0
 13 40  1  0  0  0
 13 58  1  0  0  0
 13 14  1  0  0  0
 14 15  1  0  0  0
 14 76  1  0  0  0
 14 77  1  0  0  0
 15 16  1  0  0  0
 16 17  1  0  0  0
 16 18  1  0  0  0
 16 40  1  0  0  0
 17 78  1  0  0  0
 17 79  1  0  0  0
 17 80  1  0  0  0
 18 63  1  0  0  0
 18 19  1  0  0  0
 18 23  1  0  0  0
 19 20  1  0  0  0
 20 21  1  0  0  0
 20 22  2  0  0  0
 21 81  1  0  0  0
 21 82  1  0  0  0
 21 83  1  0  0  0
 23 24  1  0  0  0
 23 28  1  0  0  0
 24 25  1  0  0  0
 25 26  1  0  0  0
 25 27  2  0  0  0
 26 84  1  0  0  0
 26 85  1  0  0  0
 26 86  1  0  0  0
 28 29  1  0  0  0
 28 87  1  0  0  0
 28 88  1  0  0  0
 29 30  1  0  0  0
 29 31  1  0  0  0
 30 89  1  0  0  0
 30 90  1  0  0  0
 30 91  1  0  0  0
 31 32  1  0  0  0
 32 33  2  0  0  0
 32 34  1  0  0  0
 34 39  1  0  0  0
 34 35  2  0  0  0
 35 36  1  0  0  0
 35 92  1  0  0  0
 36 37  2  0  0  0
 36 93  1  0  0  0
 37 38  1  0  0  0
 37 94  1  0  0  0
 38 39  2  0  0  0
 38 95  1  0  0  0
 39 96  1  0  0  0
 40 64  1  0  0  0
 40 41  1  0  0  0
 41 65  1  0  0  0
 41 44  1  0  0  0
 41 42  1  0  0  0
 42 66  1  0  0  0
 42 43  1  0  0  0
 42 50  1  0  0  0
 43 44  1  0  0  0
 43 97  1  0  0  0
 43 98  1  0  0  0
 44 45  1  0  0  0
 44 46  1  0  0  0
 45 99  1  0  0  0
 45100  1  0  0  0
 45101  1  0  0  0
 46 47  1  0  0  0
 47 48  1  0  0  0
 47 49  2  0  0  0
 48102  1  0  0  0
 48103  1  0  0  0
 48104  1  0  0  0
 50 67  1  0  0  0
 50 51  1  0  0  0
 50 58  1  0  0  0
 51 52  1  0  0  0
 52 53  2  0  0  0
 52 54  1  0  0  0
 54 55  1  0  0  0
 54 56  1  0  0  0
 54105  1  0  0  0
 55106  1  0  0  0
 55107  1  0  0  0
 55108  1  0  0  0
 56 57  1  0  0  0
 56109  1  0  0  0
 56110  1  0  0  0
 57111  1  0  0  0
 57112  1  0  0  0
 57113  1  0  0  0
 58 59  2  0  0  0
M  END
$$$$
207
                    3D
 Schrodinger Suite 2021-2.
 69 72  0  0  1  0            999 V2000
  -10.9627    4.3216   -2.5186 C   0  0  0  0  0  0
   -9.6872    4.8945   -2.2682 O   0  0  0  0  0  0
   -8.8063    4.0331   -1.6752 C   0  0  0  0  0  0
   -8.8304    3.8021   -0.3496 C   0  0  0  0  0  0
  -10.0791    4.8280    0.8124 Br  0  0  0  0  0  0
   -7.9080    2.8199    0.3659 C   0  0  2  0  0  0
   -7.6528    3.2325    1.6948 O   0  0  0  0  0  0
   -6.6034    2.4893   -0.4416 C   0  0  1  0  0  0
   -6.8334    2.6079   -1.9513 C   0  0  0  0  0  0
   -7.8444    3.3140   -2.4831 C   0  0  0  0  0  0
   -7.9961    3.3921   -4.4565 Br  0  0  0  0  0  0
   -5.3406    3.2661   -0.0524 C   0  0  0  0  0  0
   -4.3283    2.1736   -0.0642 C   0  0  0  0  0  0
   -2.8648    2.5191   -0.0142 C   0  0  0  0  0  0
   -2.4668    3.6825    0.0468 O   0  0  0  0  0  0
   -2.0677    1.4394   -0.0463 N   0  0  0  0  0  0
   -0.6134    1.4908   -0.0179 C   0  0  0  0  0  0
   -0.0212    0.0780   -0.1049 C   0  0  0  0  0  0
    1.5131    0.0867   -0.0705 C   0  0  0  0  0  0
    2.1165   -1.3265   -0.1440 C   0  0  0  0  0  0
    3.6547   -1.3479   -0.1692 C   0  0  0  0  0  0
    4.2215   -0.8161    1.0658 N   0  0  0  0  0  0
    4.7850    0.3956    1.2061 C   0  0  0  0  0  0
    4.9445    1.2048    0.2921 O   0  0  0  0  0  0
    5.1972    0.7013    2.6212 C   0  0  0  0  0  0
    5.7636    1.7637    3.0013 N   0  0  0  0  0  0
    5.9937    1.7022    4.3999 O   0  0  0  0  0  0
    5.2423    0.6185    4.9498 C   0  0  1  0  0  0
    6.1197   -0.1283    5.9472 C   0  0  0  0  0  0
    5.6451   -0.6592    7.0877 C   0  0  0  0  0  0
    7.0399   -1.3296    8.3387 Br  0  0  0  0  0  0
    4.2267   -0.5719    7.4493 C   0  0  0  0  0  0
    3.5690   -1.3604    8.3683 O   0  0  0  0  0  0
    4.1909   -2.5498    8.8257 C   0  0  0  0  0  0
    3.4814    0.3364    6.7930 C   0  0  0  0  0  0
    1.5308    0.4385    7.1757 Br  0  0  0  0  0  0
    3.9917    1.2322    5.6687 C   0  0  2  0  0  0
    2.9484    1.5660    4.7704 O   0  0  0  0  0  0
    4.9411   -0.2583    3.7367 C   0  0  0  0  0  0
   -4.8399    1.0188   -0.1239 N   0  0  0  0  0  0
   -6.2530    1.1364   -0.1417 O   0  0  0  0  0  0
   -8.4940    1.9029    0.4392 H   0  0  0  0  0  0
    4.2970    2.1592    6.1553 H   0  0  0  0  0  0
  -11.6195    5.0740   -2.9545 H   0  0  0  0  0  0
  -10.8866    3.4956   -3.2267 H   0  0  0  0  0  0
  -11.4366    3.9519   -1.6090 H   0  0  0  0  0  0
   -8.4802    3.3488    2.1366 H   0  0  0  0  0  0
   -6.1370    2.0941   -2.5980 H   0  0  0  0  0  0
   -5.0924    4.0558   -0.7635 H   0  0  0  0  0  0
   -5.3650    3.7025    0.9451 H   0  0  0  0  0  0
   -2.4997    0.5277   -0.0948 H   0  0  0  0  0  0
   -0.2557    2.0981   -0.8508 H   0  0  0  0  0  0
   -0.2874    1.9786    0.9021 H   0  0  0  0  0  0
   -0.3985   -0.5255    0.7217 H   0  0  0  0  0  0
   -0.3617   -0.4046   -1.0221 H   0  0  0  0  0  0
    1.8923    0.6855   -0.8995 H   0  0  0  0  0  0
    1.8417    0.5826    0.8430 H   0  0  0  0  0  0
    1.7596   -1.9205    0.6986 H   0  0  0  0  0  0
    1.7479   -1.8242   -1.0418 H   0  0  0  0  0  0
    4.0004   -2.3760   -0.2778 H   0  0  0  0  0  0
    4.0256   -0.8096   -1.0431 H   0  0  0  0  0  0
    4.1475   -1.3994    1.8866 H   0  0  0  0  0  0
    7.1789   -0.1573    5.7373 H   0  0  0  0  0  0
    3.4195   -3.2308    9.1843 H   0  0  0  0  0  0
    4.7342   -3.0712    8.0365 H   0  0  0  0  0  0
    4.8522   -2.3492    9.6681 H   0  0  0  0  0  0
    2.6650    0.7793    4.3310 H   0  0  0  0  0  0
    3.9211   -0.6446    3.7338 H   0  0  0  0  0  0
    5.6325   -1.0979    3.6478 H   0  0  0  0  0  0
  1  2  1  0  0  0
  1 44  1  0  0  0
  1 45  1  0  0  0
  1 46  1  0  0  0
  2  3  1  0  0  0
  3 10  1  0  0  0
  3  4  2  0  0  0
  4  5  1  0  0  0
  4  6  1  0  0  0
  6 42  1  0  0  0
  6  7  1  0  0  0
  6  8  1  0  0  0
  7 47  1  0  0  0
  8 41  1  0  0  0
  8  9  1  0  0  0
  8 12  1  0  0  0
  9 10  2  0  0  0
  9 48  1  0  0  0
 10 11  1  0  0  0
 12 13  1  0  0  0
 12 49  1  0  0  0
 12 50  1  0  0  0
 13 14  1  0  0  0
 13 40  2  0  0  0
 14 15  2  0  0  0
 14 16  1  0  0  0
 16 17  1  0  0  0
 16 51  1  0  0  0
 17 18  1  0  0  0
 17 52  1  0  0  0
 17 53  1  0  0  0
 18 19  1  0  0  0
 18 54  1  0  0  0
 18 55  1  0  0  0
 19 20  1  0  0  0
 19 56  1  0  0  0
 19 57  1  0  0  0
 20 21  1  0  0  0
 20 58  1  0  0  0
 20 59  1  0  0  0
 21 22  1  0  0  0
 21 60  1  0  0  0
 21 61  1  0  0  0
 22 23  1  0  0  0
 22 62  1  0  0  0
 23 24  2  0  0  0
 23 25  1  0  0  0
 25 39  1  0  0  0
 25 26  2  0  0  0
 26 27  1  0  0  0
 27 28  1  0  0  0
 28 37  1  0  0  0
 28 29  1  0  0  0
 28 39  1  0  0  0
 29 30  2  0  0  0
 29 63  1  0  0  0
 30 31  1  0  0  0
 30 32  1  0  0  0
 32 33  1  0  0  0
 32 35  2  0  0  0
 33 34  1  0  0  0
 34 64  1  0  0  0
 34 65  1  0  0  0
 34 66  1  0  0  0
 35 36  1  0  0  0
 35 37  1  0  0  0
 37 43  1  0  0  0
 37 38  1  0  0  0
 38 67  1  0  0  0
 39 68  1  0  0  0
 39 69  1  0  0  0
 40 41  1  0  0  0
M  END
$$$$
208
                    3D
 Schrodinger Suite 2021-2.
 90 95  0  0  1  0            999 V2000
   -4.5978   -1.8064   -5.2021 C   0  0  0  0  0  0
   -3.1769   -2.1582   -4.7033 C   0  0  0  0  0  0
   -2.8887   -3.5253   -5.3434 C   0  0  0  0  0  0
   -2.0711   -1.0748   -4.8506 C   0  0  1  0  0  0
   -2.6653   -0.4717   -3.5758 C   0  0  0  0  0  0
   -2.8900   -1.9458   -3.1847 C   0  0  2  0  0  0
   -1.6523   -2.6267   -2.5643 C   0  0  2  0  0  0
   -1.8527   -4.1179   -2.2358 C   0  0  0  0  0  0
   -1.3906   -2.0028   -1.3217 O   0  0  0  0  0  0
   -0.1463   -1.4599   -1.2992 B   0  0  0  0  0  0
    0.3216   -0.4287   -0.2048 C   0  0  2  0  0  0
   -0.2672    0.9656   -0.5061 C   0  0  0  0  0  0
   -1.7674    1.0820   -0.1897 C   0  0  0  0  0  0
   -2.3579    2.4286   -0.6359 C   0  0  0  0  0  0
   -3.8598    2.5566   -0.3428 C   0  0  0  0  0  0
   -4.6596    1.6603   -1.1957 N   0  3  0  0  0  0
    1.7797   -0.3763   -0.1967 N   0  0  0  0  0  0
    2.5270    0.0239    0.8433 C   0  0  0  0  0  0
    2.0443    0.3612    1.9259 O   0  0  0  0  0  0
    4.0518    0.0497    0.6211 C   0  0  2  0  0  0
    4.7254   -1.1759    1.2542 C   0  0  0  0  0  0
    5.0829   -0.7271    2.6626 C   0  0  0  0  0  0
    5.3689    0.7687    2.5155 C   0  0  0  0  0  0
    4.6761    1.1984    1.2945 N   0  0  0  0  0  0
    4.5805    2.4691    0.8330 C   0  0  0  0  0  0
    3.9727    2.7609   -0.1976 O   0  0  0  0  0  0
    5.1743    3.5702    1.6624 C   0  0  0  0  0  0
    6.5624    3.6316    1.9197 C   0  0  0  0  0  0
    7.0934    4.6761    2.7019 C   0  0  0  0  0  0
    6.2433    5.6700    3.2231 C   0  0  0  0  0  0
    4.8628    5.6266    2.9472 C   0  0  0  0  0  0
    3.7977    6.8730    3.5975 S   0  0  0  0  0  0
    3.0651    6.0015    4.9520 C   0  0  0  0  0  0
    3.8932    5.6196    6.0281 C   0  0  0  0  0  0
    3.3603    4.9138    7.1214 C   0  0  0  0  0  0
    1.9926    4.5901    7.1443 C   0  0  0  0  0  0
    1.1593    4.9766    6.0778 C   0  0  0  0  0  0
    1.6795    5.6887    4.9714 C   0  0  0  0  0  0
    0.7433    6.1149    3.8398 C   0  0  0  0  0  0
   -0.5175    5.7516    4.0790 F   0  0  0  0  0  0
    0.7629    7.4408    3.7025 F   0  0  0  0  0  0
    1.1142    5.5520    2.6909 F   0  0  0  0  0  0
    4.3324    4.5872    2.1593 C   0  0  0  0  0  0
    0.4349   -1.5589   -2.5230 O   0  0  0  0  0  0
   -0.3611   -2.3321   -3.4009 C   0  0  2  0  0  0
   -0.6080   -1.5298   -4.7116 C   0  0  0  0  0  0
   -2.2330   -0.4401   -5.7225 H   0  0  0  0  0  0
   -3.7867   -2.0693   -2.5762 H   0  0  0  0  0  0
   -0.0259   -0.7713    0.7716 H   0  0  0  0  0  0
   -5.6399    1.7771   -0.9821 H   0  0  0  0  0  0
   -4.4961    1.8851   -2.1666 H   0  0  0  0  0  0
   -4.3892    0.7024   -1.0231 H   0  0  0  0  0  0
    4.2647    0.0742   -0.4496 H   0  0  0  0  0  0
    0.1821   -3.2523   -3.6197 H   0  0  0  0  0  0
   -4.5789   -1.4727   -6.2401 H   0  0  0  0  0  0
   -5.2657   -2.6675   -5.1543 H   0  0  0  0  0  0
   -5.0893   -1.0269   -4.6225 H   0  0  0  0  0  0
   -1.8642   -3.8608   -5.1968 H   0  0  0  0  0  0
   -3.5399   -4.3004   -4.9377 H   0  0  0  0  0  0
   -3.0481   -3.5002   -6.4220 H   0  0  0  0  0  0
   -1.9414    0.0708   -2.9696 H   0  0  0  0  0  0
   -3.5607    0.1330   -3.7180 H   0  0  0  0  0  0
   -1.9786   -4.7342   -3.1227 H   0  0  0  0  0  0
   -0.9940   -4.5141   -1.6929 H   0  0  0  0  0  0
   -2.7309   -4.2641   -1.6067 H   0  0  0  0  0  0
    0.2584    1.7228    0.0775 H   0  0  0  0  0  0
   -0.0850    1.2152   -1.5524 H   0  0  0  0  0  0
   -2.3157    0.2740   -0.6700 H   0  0  0  0  0  0
   -1.9189    0.9540    0.8827 H   0  0  0  0  0  0
   -1.8292    3.2320   -0.1212 H   0  0  0  0  0  0
   -2.1776    2.5815   -1.7011 H   0  0  0  0  0  0
   -4.0675    2.3402    0.7056 H   0  0  0  0  0  0
   -4.1863    3.5804   -0.5277 H   0  0  0  0  0  0
    2.2509   -0.6430   -1.0495 H   0  0  0  0  0  0
    4.1034   -2.0725    1.2459 H   0  0  0  0  0  0
    5.6385   -1.4106    0.7057 H   0  0  0  0  0  0
    4.2259   -0.8732    3.3215 H   0  0  0  0  0  0
    5.9233   -1.2790    3.0843 H   0  0  0  0  0  0
    5.0354    1.3250    3.3928 H   0  0  0  0  0  0
    6.4422    0.9187    2.3998 H   0  0  0  0  0  0
    7.2278    2.8824    1.5163 H   0  0  0  0  0  0
    8.1542    4.7151    2.9013 H   0  0  0  0  0  0
    6.6526    6.4664    3.8272 H   0  0  0  0  0  0
    4.9454    5.8632    6.0144 H   0  0  0  0  0  0
    4.0006    4.6205    7.9403 H   0  0  0  0  0  0
    1.5798    4.0483    7.9826 H   0  0  0  0  0  0
    0.1116    4.7201    6.1240 H   0  0  0  0  0  0
    3.2738    4.5585    1.9491 H   0  0  0  0  0  0
   -0.3289   -2.1412   -5.5697 H   0  0  0  0  0  0
    0.0582   -0.6671   -4.7488 H   0  0  0  0  0  0
  1  2  1  0  0  0
  1 55  1  0  0  0
  1 56  1  0  0  0
  1 57  1  0  0  0
  2  6  1  0  0  0
  2  3  1  0  0  0
  2  4  1  0  0  0
  3 58  1  0  0  0
  3 59  1  0  0  0
  3 60  1  0  0  0
  4 47  1  0  0  0
  4 46  1  0  0  0
  4  5  1  0  0  0
  5  6  1  0  0  0
  5 61  1  0  0  0
  5 62  1  0  0  0
  6 48  1  0  0  0
  6  7  1  0  0  0
  7 45  1  0  0  0
  7  8  1  0  0  0
  7  9  1  0  0  0
  8 63  1  0  0  0
  8 64  1  0  0  0
  8 65  1  0  0  0
  9 10  1  0  0  0
 10 11  1  0  0  0
 10 44  1  0  0  0
 11 49  1  0  0  0
 11 12  1  0  0  0
 11 17  1  0  0  0
 12 13  1  0  0  0
 12 66  1  0  0  0
 12 67  1  0  0  0
 13 14  1  0  0  0
 13 68  1  0  0  0
 13 69  1  0  0  0
 14 15  1  0  0  0
 14 70  1  0  0  0
 14 71  1  0  0  0
 15 16  1  0  0  0
 15 72  1  0  0  0
 15 73  1  0  0  0
 16 50  1  0  0  0
 16 51  1  0  0  0
 16 52  1  0  0  0
 17 18  1  0  0  0
 17 74  1  0  0  0
 18 19  2  0  0  0
 18 20  1  0  0  0
 20 53  1  0  0  0
 20 24  1  0  0  0
 20 21  1  0  0  0
 21 22  1  0  0  0
 21 75  1  0  0  0
 21 76  1  0  0  0
 22 23  1  0  0  0
 22 77  1  0  0  0
 22 78  1  0  0  0
 23 24  1  0  0  0
 23 79  1  0  0  0
 23 80  1  0  0  0
 24 25  1  0  0  0
 25 26  2  0  0  0
 25 27  1  0  0  0
 27 43  1  0  0  0
 27 28  2  0  0  0
 28 29  1  0  0  0
 28 81  1  0  0  0
 29 30  2  0  0  0
 29 82  1  0  0  0
 30 31  1  0  0  0
 30 83  1  0  0  0
 31 32  1  0  0  0
 31 43  2  0  0  0
 32 33  1  0  0  0
 33 38  1  0  0  0
 33 34  2  0  0  0
 34 35  1  0  0  0
 34 84  1  0  0  0
 35 36  2  0  0  0
 35 85  1  0  0  0
 36 37  1  0  0  0
 36 86  1  0  0  0
 37 38  2  0  0  0
 37 87  1  0  0  0
 38 39  1  0  0  0
 39 40  1  0  0  0
 39 41  1  0  0  0
 39 42  1  0  0  0
 43 88  1  0  0  0
 44 45  1  0  0  0
 45 54  1  0  0  0
 45 46  1  0  0  0
 46 89  1  0  0  0
 46 90  1  0  0  0
M  CHG  1  16   1
M  END
$$$$
209
                    3D
 Schrodinger Suite 2021-2.
 84 88  0  0  1  0            999 V2000
   -5.3299   -0.3095    4.0801 C   0  0  0  0  0  0
   -5.2485   -1.2056    2.8393 C   0  0  0  0  0  0
   -3.8021   -1.4986    2.4196 C   0  0  0  0  0  0
   -3.7252   -2.4102    1.1843 C   0  0  0  0  0  0
   -2.2824   -2.7342    0.8044 C   0  0  0  0  0  0
   -1.8225   -3.8686    0.9381 O   0  0  0  0  0  0
   -1.6175   -1.6640    0.3404 O   0  0  0  0  0  0
   -0.2438   -1.7876    0.0073 C   0  0  0  0  0  0
    0.3516   -0.4152   -0.3259 C   0  0  0  0  0  0
   -0.4031    0.4963   -0.6692 O   0  0  0  0  0  0
    1.8171   -0.2287   -0.2170 C   0  0  0  0  0  0
    2.3207    0.9943    0.0309 C   0  0  0  0  0  0
    3.7708    1.2348    0.1679 C   0  0  0  0  0  0
    4.2995    2.5441    0.1087 C   0  0  0  0  0  0
    3.4256    3.5841   -0.0696 O   0  0  0  0  0  0
    5.7026    2.7663    0.2074 C   0  0  0  0  0  0
    6.5796    1.6514    0.3547 C   0  0  0  0  0  0
    6.0364    0.3351    0.3932 C   0  0  0  0  0  0
    6.8460   -0.7635    0.5089 O   0  0  0  0  0  0
    4.6408    0.1289    0.2993 C   0  0  0  0  0  0
    4.0479   -1.2825    0.3795 C   0  0  1  0  0  0
    3.7309   -1.5981    1.7329 O   0  0  0  0  0  0
    4.4344   -2.6576    2.3094 C   0  0  2  0  0  0
    3.8024   -4.0037    1.8939 C   0  0  0  0  0  0
    2.3713   -4.0761    2.4570 C   0  0  1  0  0  0
    1.6965   -5.3204    2.0968 N   0  0  0  0  0  0
    1.1575   -5.5994    0.8991 C   0  0  0  0  0  0
    1.2056   -4.8265   -0.0585 O   0  0  0  0  0  0
    0.4571   -6.9551    0.7701 C   0  0  0  0  0  0
   -0.5364   -7.0239    1.6565 F   0  0  0  0  0  0
   -0.0365   -7.1009   -0.4603 F   0  0  0  0  0  0
    1.3347   -7.9289    1.0129 F   0  0  0  0  0  0
    2.3939   -3.8849    3.9826 C   0  0  1  0  0  0
    2.9732   -4.9983    4.6400 O   0  0  0  0  0  0
    3.1618   -2.5918    4.3427 C   0  0  1  0  0  0
    3.3427   -2.3707    5.8518 C   0  0  0  0  0  0
    4.4425   -2.5765    3.7058 O   0  0  0  0  0  0
    2.7378   -1.4234   -0.4203 C   0  0  0  0  0  0
    8.0621    1.8746    0.4762 C   0  0  0  0  0  0
    8.8078    1.0699    1.0359 O   0  0  0  0  0  0
    8.5769    3.1463   -0.1219 C   0  0  0  0  0  0
    9.9361    3.2708   -0.5343 C   0  0  0  0  0  0
   10.7730    2.1769   -0.4172 O   0  0  0  0  0  0
   12.1344    2.3071   -0.8009 C   0  0  0  0  0  0
   10.3834    4.5079   -1.0642 C   0  0  0  0  0  0
    9.5088    5.5991   -1.1842 C   0  0  0  0  0  0
    8.1708    5.4724   -0.7831 C   0  0  0  0  0  0
    7.6951    4.2510   -0.2585 C   0  0  0  0  0  0
    6.2678    4.1577    0.1503 C   0  0  0  0  0  0
    5.6080    5.1689    0.3943 O   0  0  0  0  0  0
    4.7487   -2.0052   -0.0414 H   0  0  0  0  0  0
   -6.3676   -0.1180    4.3539 H   0  0  0  0  0  0
   -4.8408   -0.7764    4.9355 H   0  0  0  0  0  0
   -4.8499    0.6532    3.9027 H   0  0  0  0  0  0
   -5.7693   -2.1428    3.0386 H   0  0  0  0  0  0
   -5.7783   -0.7270    2.0149 H   0  0  0  0  0  0
   -3.2904   -0.5566    2.2167 H   0  0  0  0  0  0
   -3.2725   -1.9653    3.2517 H   0  0  0  0  0  0
   -4.2563   -3.3433    1.3747 H   0  0  0  0  0  0
   -4.2149   -1.9343    0.3343 H   0  0  0  0  0  0
    0.2918   -2.2129    0.8548 H   0  0  0  0  0  0
   -0.1227   -2.4567   -0.8454 H   0  0  0  0  0  0
    1.6560    1.8335    0.1783 H   0  0  0  0  0  0
    2.5242    3.3061   -0.1260 H   0  0  0  0  0  0
    6.3684   -1.5783    0.5261 H   0  0  0  0  0  0
    5.4815   -2.6086    2.0087 H   0  0  0  0  0  0
    3.8106   -4.0868    0.8072 H   0  0  0  0  0  0
    4.4195   -4.8143    2.2833 H   0  0  0  0  0  0
    1.7893   -3.2552    2.0394 H   0  0  0  0  0  0
    1.6115   -6.0150    2.8252 H   0  0  0  0  0  0
    1.3690   -3.8019    4.3467 H   0  0  0  0  0  0
    3.8811   -5.0557    4.3843 H   0  0  0  0  0  0
    2.5896   -1.7432    3.9649 H   0  0  0  0  0  0
    2.3814   -2.3771    6.3659 H   0  0  0  0  0  0
    3.9690   -3.1416    6.3012 H   0  0  0  0  0  0
    3.8161   -1.4085    6.0479 H   0  0  0  0  0  0
    2.2663   -2.3739   -0.1830 H   0  0  0  0  0  0
    2.9702   -1.4607   -1.4852 H   0  0  0  0  0  0
   12.6480    1.3626   -0.6226 H   0  0  0  0  0  0
   12.2297    2.5377   -1.8629 H   0  0  0  0  0  0
   12.6441    3.0731   -0.2149 H   0  0  0  0  0  0
   11.4016    4.6510   -1.3914 H   0  0  0  0  0  0
    9.8650    6.5348   -1.5893 H   0  0  0  0  0  0
    7.5130    6.3230   -0.8900 H   0  0  0  0  0  0
  1  2  1  0  0  0
  1 52  1  0  0  0
  1 53  1  0  0  0
  1 54  1  0  0  0
  2  3  1  0  0  0
  2 55  1  0  0  0
  2 56  1  0  0  0
  3  4  1  0  0  0
  3 57  1  0  0  0
  3 58  1  0  0  0
  4  5  1  0  0  0
  4 59  1  0  0  0
  4 60  1  0  0  0
  5  6  2  0  0  0
  5  7  1  0  0  0
  7  8  1  0  0  0
  8  9  1  0  0  0
  8 61  1  0  0  0
  8 62  1  0  0  0
  9 10  2  0  0  0
  9 11  1  0  0  0
 11 38  1  0  0  0
 11 12  2  0  0  0
 12 13  1  0  0  0
 12 63  1  0  0  0
 13 20  2  0  0  0
 13 14  1  0  0  0
 14 15  1  0  0  0
 14 16  2  0  0  0
 15 64  1  0  0  0
 16 49  1  0  0  0
 16 17  1  0  0  0
 17 18  2  0  0  0
 17 39  1  0  0  0
 18 19  1  0  0  0
 18 20  1  0  0  0
 19 65  1  0  0  0
 20 21  1  0  0  0
 21 51  1  0  0  0
 21 22  1  0  0  0
 21 38  1  0  0  0
 22 23  1  0  0  0
 23 37  1  0  0  0
 23 24  1  0  0  0
 23 66  1  0  0  0
 24 25  1  0  0  0
 24 67  1  0  0  0
 24 68  1  0  0  0
 25 26  1  0  0  0
 25 33  1  0  0  0
 25 69  1  0  0  0
 26 27  1  0  0  0
 26 70  1  0  0  0
 27 28  2  0  0  0
 27 29  1  0  0  0
 29 30  1  0  0  0
 29 31  1  0  0  0
 29 32  1  0  0  0
 33 34  1  0  0  0
 33 35  1  0  0  0
 33 71  1  0  0  0
 34 72  1  0  0  0
 35 36  1  0  0  0
 35 37  1  0  0  0
 35 73  1  0  0  0
 36 74  1  0  0  0
 36 75  1  0  0  0
 36 76  1  0  0  0
 38 77  1  0  0  0
 38 78  1  0  0  0
 39 40  2  0  0  0
 39 41  1  0  0  0
 41 48  2  0  0  0
 41 42  1  0  0  0
 42 43  1  0  0  0
 42 45  2  0  0  0
 43 44  1  0  0  0
 44 79  1  0  0  0
 44 80  1  0  0  0
 44 81  1  0  0  0
 45 46  1  0  0  0
 45 82  1  0  0  0
 46 47  2  0  0  0
 46 83  1  0  0  0
 47 48  1  0  0  0
 47 84  1  0  0  0
 48 49  1  0  0  0
 49 50  2  0  0  0
M  END
$$$$
210
                    3D
 Schrodinger Suite 2021-2.
 74 77  0  0  1  0            999 V2000
   -0.6740   -4.8614   -2.7216 C   0  0  0  0  0  0
   -0.6568   -3.3464   -2.8710 C   0  0  0  0  0  0
    0.3932   -2.7351   -3.0671 O   0  0  0  0  0  0
   -1.8849   -2.8067   -2.7605 O   0  0  0  0  0  0
   -2.0750   -1.4011   -2.8596 C   0  0  0  0  0  0
   -1.9299   -0.7274   -1.4830 C   0  0  1  0  0  0
   -0.5391   -0.5831   -1.2337 O   0  0  0  0  0  0
   -0.2296   -0.1575    0.0842 C   0  0  1  0  0  0
    1.5529   -0.2454    0.4158 S   0  0  0  0  0  0
    1.7678   -1.9853    0.1974 C   0  0  0  0  0  0
    0.9332   -2.9126    0.6708 N   0  0  0  0  0  0
    1.4685   -4.1244    0.2898 N   0  0  0  0  0  0
    2.5945   -3.8462   -0.3786 C   0  0  0  0  0  0
    3.4507   -4.8922   -0.9371 C   0  0  0  0  0  0
    2.8711   -5.9896   -1.6112 C   0  0  0  0  0  0
    3.6850   -6.9995   -2.1598 C   0  0  0  0  0  0
    5.0852   -6.9213   -2.0360 C   0  0  0  0  0  0
    5.6705   -5.8335   -1.3608 C   0  0  0  0  0  0
    4.8566   -4.8234   -0.8123 C   0  0  0  0  0  0
    2.8098   -2.5153   -0.4744 N   0  0  0  0  0  0
    3.8557   -1.8612   -1.1118 N   0  0  0  0  0  0
    3.6289   -1.3050   -2.2300 C   0  0  0  0  0  0
    4.6401   -0.5901   -3.0469 C   0  0  0  0  0  0
    5.9829   -0.5122   -2.6054 C   0  0  0  0  0  0
    6.9572    0.1585   -3.3688 C   0  0  0  0  0  0
    8.5867    0.2399   -2.8078 Cl  0  0  0  0  0  0
    6.6019    0.7616   -4.5884 C   0  0  0  0  0  0
    5.2721    0.6928   -5.0409 C   0  0  0  0  0  0
    4.2926    0.0232   -4.2794 C   0  0  0  0  0  0
    3.0138   -0.0145   -4.7626 O   0  0  0  0  0  0
   -0.7586    1.2877    0.2383 C   0  0  2  0  0  0
   -0.4565    1.8611    1.5164 O   0  0  0  0  0  0
   -0.9538    1.3898    2.6839 C   0  0  0  0  0  0
   -0.4928    2.2094    3.8821 C   0  0  0  0  0  0
   -1.6985    0.4208    2.8264 O   0  0  0  0  0  0
   -2.2608    1.3891   -0.1109 C   0  0  1  0  0  0
   -2.5723    2.7695   -0.2719 O   0  0  0  0  0  0
   -3.4667    3.3738    0.5317 C   0  0  0  0  0  0
   -3.6591    4.8422    0.1789 C   0  0  0  0  0  0
   -4.0876    2.8495    1.4559 O   0  0  0  0  0  0
   -2.5720    0.6732   -1.4403 C   0  0  2  0  0  0
   -3.9828    0.4986   -1.5336 O   0  0  0  0  0  0
   -4.7261    1.2913   -2.3263 C   0  0  0  0  0  0
   -6.2056    0.9357   -2.2741 C   0  0  0  0  0  0
   -4.3112    2.2147   -3.0265 O   0  0  0  0  0  0
   -2.3845   -1.3636   -0.7206 H   0  0  0  0  0  0
   -0.7282   -0.8192    0.7923 H   0  0  0  0  0  0
   -0.2187    1.8947   -0.4894 H   0  0  0  0  0  0
   -2.8543    0.9161    0.6715 H   0  0  0  0  0  0
   -2.1737    1.2564   -2.2724 H   0  0  0  0  0  0
   -0.5886   -5.1363   -1.6702 H   0  0  0  0  0  0
   -1.6020   -5.2772   -3.1152 H   0  0  0  0  0  0
    0.1594   -5.3050   -3.2665 H   0  0  0  0  0  0
   -1.4081   -0.9498   -3.5958 H   0  0  0  0  0  0
   -3.0886   -1.2536   -3.2322 H   0  0  0  0  0  0
    1.7985   -6.0612   -1.7120 H   0  0  0  0  0  0
    3.2344   -7.8349   -2.6753 H   0  0  0  0  0  0
    5.7096   -7.6960   -2.4562 H   0  0  0  0  0  0
    6.7443   -5.7740   -1.2613 H   0  0  0  0  0  0
    5.3192   -3.9992   -0.2898 H   0  0  0  0  0  0
    2.6188   -1.3409   -2.6472 H   0  0  0  0  0  0
    6.2815   -0.9691   -1.6729 H   0  0  0  0  0  0
    7.3468    1.2763   -5.1774 H   0  0  0  0  0  0
    5.0053    1.1579   -5.9786 H   0  0  0  0  0  0
    2.9166    0.4268   -5.5927 H   0  0  0  0  0  0
    0.0880    3.0751    3.5630 H   0  0  0  0  0  0
   -1.3542    2.5632    4.4488 H   0  0  0  0  0  0
    0.1276    1.6002    4.5393 H   0  0  0  0  0  0
   -3.9180    4.9472   -0.8747 H   0  0  0  0  0  0
   -4.4599    5.2782    0.7764 H   0  0  0  0  0  0
   -2.7424    5.4003    0.3691 H   0  0  0  0  0  0
   -6.5752    1.0057   -1.2508 H   0  0  0  0  0  0
   -6.7861    1.6154   -2.8984 H   0  0  0  0  0  0
   -6.3630   -0.0820   -2.6316 H   0  0  0  0  0  0
  1  2  1  0  0  0
  1 51  1  0  0  0
  1 52  1  0  0  0
  1 53  1  0  0  0
  2  3  2  0  0  0
  2  4  1  0  0  0
  4  5  1  0  0  0
  5  6  1  0  0  0
  5 54  1  0  0  0
  5 55  1  0  0  0
  6 46  1  0  0  0
  6 41  1  0  0  0
  6  7  1  0  0  0
  7  8  1  0  0  0
  8 47  1  0  0  0
  8  9  1  0  0  0
  8 31  1  0  0  0
  9 10  1  0  0  0
 10 20  1  0  0  0
 10 11  2  0  0  0
 11 12  1  0  0  0
 12 13  2  0  0  0
 13 14  1  0  0  0
 13 20  1  0  0  0
 14 19  1  0  0  0
 14 15  2  0  0  0
 15 16  1  0  0  0
 15 56  1  0  0  0
 16 17  2  0  0  0
 16 57  1  0  0  0
 17 18  1  0  0  0
 17 58  1  0  0  0
 18 19  2  0  0  0
 18 59  1  0  0  0
 19 60  1  0  0  0
 20 21  1  0  0  0
 21 22  2  0  0  0
 22 23  1  0  0  0
 22 61  1  0  0  0
 23 29  1  0  0  0
 23 24  2  0  0  0
 24 25  1  0  0  0
 24 62  1  0  0  0
 25 26  1  0  0  0
 25 27  2  0  0  0
 27 28  1  0  0  0
 27 63  1  0  0  0
 28 29  2  0  0  0
 28 64  1  0  0  0
 29 30  1  0  0  0
 30 65  1  0  0  0
 31 48  1  0  0  0
 31 32  1  0  0  0
 31 36  1  0  0  0
 32 33  1  0  0  0
 33 34  1  0  0  0
 33 35  2  0  0  0
 34 66  1  0  0  0
 34 67  1  0  0  0
 34 68  1  0  0  0
 36 49  1  0  0  0
 36 37  1  0  0  0
 36 41  1  0  0  0
 37 38  1  0  0  0
 38 39  1  0  0  0
 38 40  2  0  0  0
 39 69  1  0  0  0
 39 70  1  0  0  0
 39 71  1  0  0  0
 41 50  1  0  0  0
 41 42  1  0  0  0
 42 43  1  0  0  0
 43 44  1  0  0  0
 43 45  2  0  0  0
 44 72  1  0  0  0
 44 73  1  0  0  0
 44 74  1  0  0  0
M  END
$$$$
211
                    3D
 Schrodinger Suite 2021-2.
117122  0  0  1  0            999 V2000
   -5.6547   -3.4718   -4.3720 C   0  0  0  0  0  0
   -4.2729   -4.0796   -4.0956 C   0  0  0  0  0  0
   -3.1603   -3.0419   -4.2159 C   0  0  0  0  0  0
   -2.3140   -3.1079   -5.1080 O   0  0  0  0  0  0
   -3.2354   -2.0889   -3.2619 O   0  0  0  0  0  0
   -2.3162   -0.9979   -3.2330 C   0  0  1  0  0  0
   -2.7509    0.1501   -4.1762 C   0  0  0  0  0  0
   -3.8378    0.0474   -4.7514 O   0  0  0  0  0  0
   -1.8158    1.3714   -4.4780 C   0  0  2  0  0  0
   -2.6338    2.3543   -5.3753 C   0  0  0  0  0  0
   -0.5893    0.8302   -5.2897 C   0  0  1  0  0  0
   -0.9686    0.0426   -6.4079 O   0  0  0  0  0  0
    0.3532    1.9191   -5.8424 C   0  0  0  0  0  0
    0.6546    3.0449   -4.8582 C   0  0  1  0  0  0
    0.1481    4.2945   -5.3875 O   0  0  0  0  0  0
   -0.5628    4.5526   -4.1584 C   0  0  0  0  0  0
   -0.1673    3.1933   -3.5598 C   0  0  2  0  0  0
    0.6778    3.5235   -2.4489 O   0  0  0  0  0  0
    1.6904    2.7488   -2.0182 C   0  0  0  0  0  0
    2.4563    3.4089   -0.8817 C   0  0  0  0  0  0
    2.0040    1.6423   -2.4555 O   0  0  0  0  0  0
   -1.2470    2.1132   -3.1840 C   0  0  1  0  0  0
   -2.3129    2.5840   -2.0939 C   0  0  2  0  0  0
   -1.9170    3.8626   -1.5853 O   0  0  0  0  0  0
   -2.7134    4.9571   -1.6400 C   0  0  0  0  0  0
   -3.8330    4.9712   -2.1541 O   0  0  0  0  0  0
   -2.0741    6.1517   -1.0175 C   0  0  0  0  0  0
   -2.7484    7.3943   -1.0452 C   0  0  0  0  0  0
   -2.1665    8.5387   -0.4661 C   0  0  0  0  0  0
   -0.9036    8.4539    0.1485 C   0  0  0  0  0  0
   -0.2229    7.2230    0.1843 C   0  0  0  0  0  0
   -0.8032    6.0778   -0.3942 C   0  0  0  0  0  0
   -2.5516    1.6843   -0.7965 C   0  0  2  0  0  0
   -3.5182    2.3803   -0.0209 O   0  0  0  0  0  0
   -1.2708    1.5380    0.0946 C   0  0  0  0  0  0
   -0.5150    0.1756    0.0214 C   0  0  2  0  0  0
    0.8899    0.3823    0.1375 O   0  0  0  0  0  0
    1.4653    0.5420    1.3454 C   0  0  0  0  0  0
    0.8666    0.6183    2.4195 O   0  0  0  0  0  0
    2.9975    0.5566    1.2563 C   0  0  2  0  0  0
    3.4394   -0.7842    1.1725 O   0  0  0  0  0  0
    3.7081    1.2699    2.4359 C   0  0  2  0  0  0
    3.2184    2.7057    2.6149 C   0  0  0  0  0  0
    2.5355    3.2393    3.6490 C   0  0  0  0  0  0
    2.1311    4.7009    3.6405 C   0  0  0  0  0  0
    2.1022    2.4875    4.8970 C   0  0  0  0  0  0
    5.1426    1.3094    2.1622 N   0  0  0  0  0  0
    6.1114    1.4558    3.0811 C   0  0  0  0  0  0
    5.8746    1.5900    4.2823 O   0  0  0  0  0  0
    7.4433    1.4370    2.4905 C   0  0  0  0  0  0
    8.5562    1.5350    3.2200 C   0  0  0  0  0  0
    9.8041    1.4848    2.3813 C   0  0  0  0  0  0
    9.2788    1.4031    0.9302 C   0  0  0  0  0  0
    7.7387    1.3049    1.0135 C   0  0  0  0  0  0
   -0.8735   -0.6503   -1.2143 C   0  0  0  0  0  0
    0.2729   -1.4713   -1.7982 C   0  0  0  0  0  0
   -2.0946   -0.5274   -1.7966 C   0  0  0  0  0  0
   -3.1950    0.2853   -1.0720 C   0  0  0  0  0  0
   -3.5912   -0.4834    0.2282 C   0  0  0  0  0  0
   -4.5816    0.4159   -1.7817 C   0  0  0  0  0  0
   -1.3732   -1.3432   -3.6467 H   0  0  0  0  0  0
    0.0042    0.1880   -4.6376 H   0  0  0  0  0  0
    1.7279    3.1463   -4.6936 H   0  0  0  0  0  0
   -0.6472    1.3654   -2.6874 H   0  0  0  0  0  0
   -3.2608    2.7051   -2.6119 H   0  0  0  0  0  0
   -0.7941   -0.4495    0.8682 H   0  0  0  0  0  0
    3.2738    1.0489    0.3246 H   0  0  0  0  0  0
    3.5505    0.6831    3.3391 H   0  0  0  0  0  0
   -6.4285   -4.2377   -4.3215 H   0  0  0  0  0  0
   -5.9062   -2.7004   -3.6430 H   0  0  0  0  0  0
   -5.6988   -3.0224   -5.3649 H   0  0  0  0  0  0
   -4.2472   -4.5124   -3.0953 H   0  0  0  0  0  0
   -4.0774   -4.8911   -4.7974 H   0  0  0  0  0  0
   -2.0391    3.1450   -5.8181 H   0  0  0  0  0  0
   -3.0824    1.8555   -6.2356 H   0  0  0  0  0  0
   -3.4421    2.8317   -4.8213 H   0  0  0  0  0  0
   -1.4841   -0.6901   -6.1059 H   0  0  0  0  0  0
    1.2856    1.4480   -6.1561 H   0  0  0  0  0  0
   -0.0657    2.3398   -6.7582 H   0  0  0  0  0  0
   -0.1530    5.4169   -3.6321 H   0  0  0  0  0  0
   -1.6313    4.6909   -4.3151 H   0  0  0  0  0  0
    2.5874    4.4731   -1.0783 H   0  0  0  0  0  0
    1.9053    3.2969    0.0518 H   0  0  0  0  0  0
    3.4417    2.9581   -0.7670 H   0  0  0  0  0  0
   -3.7187    7.4836   -1.5121 H   0  0  0  0  0  0
   -2.6906    9.4828   -0.4938 H   0  0  0  0  0  0
   -0.4579    9.3318    0.5923 H   0  0  0  0  0  0
    0.7459    7.1558    0.6572 H   0  0  0  0  0  0
   -0.2533    5.1494   -0.3459 H   0  0  0  0  0  0
   -3.6947    1.8792    0.7605 H   0  0  0  0  0  0
   -0.5761    2.3463   -0.1298 H   0  0  0  0  0  0
   -1.5265    1.6956    1.1437 H   0  0  0  0  0  0
    3.1027   -1.1616    0.3743 H   0  0  0  0  0  0
    3.4656    3.3571    1.7898 H   0  0  0  0  0  0
    1.0470    4.7933    3.7101 H   0  0  0  0  0  0
    2.5754    5.2215    4.4893 H   0  0  0  0  0  0
    2.4534    5.2045    2.7283 H   0  0  0  0  0  0
    2.5842    2.9181    5.7748 H   0  0  0  0  0  0
    1.0235    2.5783    5.0267 H   0  0  0  0  0  0
    2.3369    1.4265    4.8789 H   0  0  0  0  0  0
    5.4229    1.1964    1.1988 H   0  0  0  0  0  0
    8.5974    1.6325    4.2955 H   0  0  0  0  0  0
   10.4122    2.3751    2.5440 H   0  0  0  0  0  0
   10.3937    0.6066    2.6463 H   0  0  0  0  0  0
    9.5687    2.2962    0.3751 H   0  0  0  0  0  0
    9.7011    0.5454    0.4057 H   0  0  0  0  0  0
    7.3818    0.3437    0.6411 H   0  0  0  0  0  0
    7.2570    2.1016    0.4450 H   0  0  0  0  0  0
    0.8651   -1.9173   -0.9988 H   0  0  0  0  0  0
   -0.0737   -2.3050   -2.4075 H   0  0  0  0  0  0
    0.9285   -0.8437   -2.4009 H   0  0  0  0  0  0
   -4.3880    0.0193    0.7775 H   0  0  0  0  0  0
   -3.9627   -1.4796   -0.0166 H   0  0  0  0  0  0
   -2.7945   -0.6251    0.9488 H   0  0  0  0  0  0
   -5.3470    0.7859   -1.0987 H   0  0  0  0  0  0
   -4.6062    1.1242   -2.6035 H   0  0  0  0  0  0
   -4.9500   -0.5430   -2.1450 H   0  0  0  0  0  0
  1  2  1  0  0  0
  1 69  1  0  0  0
  1 70  1  0  0  0
  1 71  1  0  0  0
  2  3  1  0  0  0
  2 72  1  0  0  0
  2 73  1  0  0  0
  3  4  2  0  0  0
  3  5  1  0  0  0
  5  6  1  0  0  0
  6 61  1  0  0  0
  6 57  1  0  0  0
  6  7  1  0  0  0
  7  8  2  0  0  0
  7  9  1  0  0  0
  9 22  1  0  0  0
  9 10  1  0  0  0
  9 11  1  0  0  0
 10 74  1  0  0  0
 10 75  1  0  0  0
 10 76  1  0  0  0
 11 62  1  0  0  0
 11 12  1  0  0  0
 11 13  1  0  0  0
 12 77  1  0  0  0
 13 14  1  0  0  0
 13 78  1  0  0  0
 13 79  1  0  0  0
 14 63  1  0  0  0
 14 17  1  0  0  0
 14 15  1  0  0  0
 15 16  1  0  0  0
 16 17  1  0  0  0
 16 80  1  0  0  0
 16 81  1  0  0  0
 17 18  1  0  0  0
 17 22  1  0  0  0
 18 19  1  0  0  0
 19 20  1  0  0  0
 19 21  2  0  0  0
 20 82  1  0  0  0
 20 83  1  0  0  0
 20 84  1  0  0  0
 22 64  1  0  0  0
 22 23  1  0  0  0
 23 65  1  0  0  0
 23 24  1  0  0  0
 23 33  1  0  0  0
 24 25  1  0  0  0
 25 26  2  0  0  0
 25 27  1  0  0  0
 27 32  1  0  0  0
 27 28  2  0  0  0
 28 29  1  0  0  0
 28 85  1  0  0  0
 29 30  2  0  0  0
 29 86  1  0  0  0
 30 31  1  0  0  0
 30 87  1  0  0  0
 31 32  2  0  0  0
 31 88  1  0  0  0
 32 89  1  0  0  0
 33 58  1  0  0  0
 33 34  1  0  0  0
 33 35  1  0  0  0
 34 90  1  0  0  0
 35 36  1  0  0  0
 35 91  1  0  0  0
 35 92  1  0  0  0
 36 66  1  0  0  0
 36 37  1  0  0  0
 36 55  1  0  0  0
 37 38  1  0  0  0
 38 39  2  0  0  0
 38 40  1  0  0  0
 40 67  1  0  0  0
 40 41  1  0  0  0
 40 42  1  0  0  0
 41 93  1  0  0  0
 42 68  1  0  0  0
 42 43  1  0  0  0
 42 47  1  0  0  0
 43 44  2  3  0  0
 43 94  1  0  0  0
 44 45  1  0  0  0
 44 46  1  0  0  0
 45 95  1  0  0  0
 45 96  1  0  0  0
 45 97  1  0  0  0
 46 98  1  0  0  0
 46 99  1  0  0  0
 46100  1  0  0  0
 47 48  1  0  0  0
 47101  1  0  0  0
 48 49  2  0  0  0
 48 50  1  0  0  0
 50 54  1  0  0  0
 50 51  2  0  0  0
 51 52  1  0  0  0
 51102  1  0  0  0
 52 53  1  0  0  0
 52103  1  0  0  0
 52104  1  0  0  0
 53 54  1  0  0  0
 53105  1  0  0  0
 53106  1  0  0  0
 54107  1  0  0  0
 54108  1  0  0  0
 55 56  1  0  0  0
 55 57  2  0  0  0
 56109  1  0  0  0
 56110  1  0  0  0
 56111  1  0  0  0
 57 58  1  0  0  0
 58 59  1  0  0  0
 58 60  1  0  0  0
 59112  1  0  0  0
 59113  1  0  0  0
 59114  1  0  0  0
 60115  1  0  0  0
 60116  1  0  0  0
 60117  1  0  0  0
M  END
$$$$
212
                    3D
 Schrodinger Suite 2021-2.
122125  0  0  1  0            999 V2000
   -0.3395    0.0198   -7.5399 C   0  0  0  0  0  0
    0.6832   -0.1639   -6.6914 C   0  0  0  0  0  0
    1.0646    0.8007   -5.5826 C   0  0  0  0  0  0
    0.9422    0.2115   -4.2967 O   0  0  0  0  0  0
    1.9825   -0.7038   -4.1210 N   0  0  0  0  0  0
    1.9512   -1.4331   -3.0688 C   0  0  0  0  0  0
    3.0454   -2.5273   -3.0607 C   0  0  2  0  0  0
    2.5985   -3.7221   -3.9430 C   0  0  0  0  0  0
    3.6121   -2.9579   -1.6660 C   0  0  1  0  0  0
    4.3804   -4.1338   -1.8585 O   0  0  0  0  0  0
    5.6876   -3.9057   -1.9626 C   0  0  0  0  0  0
    6.5528   -4.6983   -2.3253 O   0  0  0  0  0  0
    5.8637   -2.6440   -1.5804 O   0  0  0  0  0  0
    4.7028   -2.0638   -1.0150 C   0  0  1  0  0  0
    4.6637   -0.5650   -1.3838 C   0  0  0  0  0  0
    4.7640   -2.3014    0.5239 C   0  0  1  0  0  0
    6.0502   -1.7771    1.2062 C   0  0  0  0  0  0
    6.2019   -2.2353    2.6627 C   0  0  0  0  0  0
    3.6479   -1.6640    1.1343 O   0  0  0  0  0  0
    2.8237   -2.3273    1.9691 C   0  0  0  0  0  0
    2.8385   -3.5359    2.2033 O   0  0  0  0  0  0
    1.8455   -1.3750    2.6579 C   0  0  2  0  0  0
    1.9050   -1.5122    4.1909 C   0  0  0  0  0  0
    0.4115   -1.4591    2.0715 C   0  0  1  0  0  0
   -0.3486   -2.3931    2.8345 O   0  0  0  0  0  0
   -0.7335   -3.5588    2.1250 C   0  0  0  0  0  0
   -1.4442   -4.4624    3.0394 C   0  0  0  0  0  0
   -2.0252   -5.2144    3.8062 C   0  0  0  0  0  0
   -2.7185   -6.1197    4.7061 C   0  0  0  0  0  0
   -3.7614   -6.9305    4.2088 C   0  0  0  0  0  0
   -4.4182   -7.8031    5.0977 C   0  0  0  0  0  0
   -4.0107   -7.8333    6.4451 C   0  0  0  0  0  0
   -2.9588   -6.9855    6.8459 C   0  0  0  0  0  0
   -2.5260   -6.9873    8.1695 N   0  0  0  0  0  0
   -2.3250   -6.1460    5.9993 N   0  0  0  0  0  0
   -0.2658   -0.0621    2.0394 C   0  0  2  0  0  0
   -1.7110   -0.0322    2.5856 C   0  0  0  0  0  0
   -0.0836    0.6700    0.6746 C   0  0  1  0  0  0
    1.3251    0.7249    0.4360 O   0  0  0  0  0  0
    1.8875    1.9661    0.1267 C   0  0  2  0  0  0
    2.2883    1.9582   -1.2099 O   0  0  0  0  0  0
    2.9112    3.1433   -1.6794 C   0  0  2  0  0  0
    3.1351    2.9841   -3.1865 C   0  0  0  0  0  0
    4.2236    3.3261   -0.9084 C   0  0  0  0  0  0
    3.9202    3.3908    0.5987 C   0  0  2  0  0  0
    5.1392    3.6069    1.4355 N   0  3  0  0  0  0
    6.2486    2.6487    1.2141 C   0  0  0  0  0  0
    5.6131    5.0097    1.4231 C   0  0  0  0  0  0
    3.1299    2.1329    1.0354 C   0  0  1  0  0  0
    2.7322    2.3363    2.3780 O   0  0  0  0  0  0
   -0.9094    0.1454   -0.5653 C   0  0  2  0  0  0
   -1.8800    1.2907   -0.9596 C   0  0  0  0  0  0
   -1.6639   -1.0024   -0.1658 O   0  0  0  0  0  0
   -2.7845   -1.4142   -0.9442 C   0  0  0  0  0  0
   -0.0637   -0.2023   -1.8362 C   0  0  0  0  0  0
    0.9401   -1.4083   -1.8665 C   0  0  1  0  0  0
    0.1877   -2.7567   -1.7912 C   0  0  0  0  0  0
    3.8969   -2.1198   -3.6084 H   0  0  0  0  0  0
    2.8137   -3.1798   -0.9609 H   0  0  0  0  0  0
    4.7268   -3.3787    0.6920 H   0  0  0  0  0  0
    2.2315   -0.3814    2.4344 H   0  0  0  0  0  0
    0.4752   -1.8112    1.0420 H   0  0  0  0  0  0
    0.2699    0.5574    2.7605 H   0  0  0  0  0  0
   -0.4317    1.6773    0.9060 H   0  0  0  0  0  0
    1.1931    2.7965    0.2657 H   0  0  0  0  0  0
    2.2508    3.9955   -1.5097 H   0  0  0  0  0  0
    3.2653    4.2488    0.7631 H   0  0  0  0  0  0
    4.8284    3.4445    2.3833 H   0  0  0  0  0  0
    3.7358    1.2304    0.9618 H   0  0  0  0  0  0
    1.5477   -1.3246   -0.9688 H   0  0  0  0  0  0
   -0.5581   -0.7057   -8.3096 H   0  0  0  0  0  0
   -0.9709    0.8939   -7.4780 H   0  0  0  0  0  0
    1.2913   -1.0515   -6.7876 H   0  0  0  0  0  0
    2.0750    1.1791   -5.7487 H   0  0  0  0  0  0
    0.4002    1.6648   -5.6167 H   0  0  0  0  0  0
    2.1738   -3.3876   -4.8904 H   0  0  0  0  0  0
    3.4436   -4.3604   -4.2018 H   0  0  0  0  0  0
    1.8588   -4.3578   -3.4615 H   0  0  0  0  0  0
    3.7355   -0.1093   -1.0487 H   0  0  0  0  0  0
    5.4846   -0.0156   -0.9256 H   0  0  0  0  0  0
    4.7458   -0.3978   -2.4569 H   0  0  0  0  0  0
    6.9267   -2.1259    0.6604 H   0  0  0  0  0  0
    6.0838   -0.6898    1.1705 H   0  0  0  0  0  0
    7.1528   -1.8995    3.0763 H   0  0  0  0  0  0
    5.4099   -1.8332    3.2945 H   0  0  0  0  0  0
    6.1727   -3.3228    2.7372 H   0  0  0  0  0  0
    2.9213   -1.3670    4.5586 H   0  0  0  0  0  0
    1.2737   -0.7659    4.6737 H   0  0  0  0  0  0
    1.5720   -2.4954    4.5258 H   0  0  0  0  0  0
   -1.4008   -3.3081    1.3003 H   0  0  0  0  0  0
    0.1345   -4.0838    1.7248 H   0  0  0  0  0  0
   -4.0547   -6.8885    3.1696 H   0  0  0  0  0  0
   -5.2204   -8.4380    4.7521 H   0  0  0  0  0  0
   -4.4960   -8.4922    7.1503 H   0  0  0  0  0  0
   -2.9473   -7.5875    8.8634 H   0  0  0  0  0  0
   -1.7749   -6.3865    8.4766 H   0  0  0  0  0  0
   -2.3740   -0.7403    2.0924 H   0  0  0  0  0  0
   -1.7230   -0.2816    3.6471 H   0  0  0  0  0  0
   -2.1500    0.9606    2.4862 H   0  0  0  0  0  0
    3.6274    3.8607   -3.6075 H   0  0  0  0  0  0
    3.7527    2.1122   -3.4054 H   0  0  0  0  0  0
    2.1855    2.8550   -3.7058 H   0  0  0  0  0  0
    4.8873    2.4918   -1.1359 H   0  0  0  0  0  0
    4.7247    4.2341   -1.2438 H   0  0  0  0  0  0
    6.7178    2.7929    0.2405 H   0  0  0  0  0  0
    7.0186    2.7851    1.9741 H   0  0  0  0  0  0
    5.9084    1.6179    1.2847 H   0  0  0  0  0  0
    5.9942    5.2919    0.4414 H   0  0  0  0  0  0
    4.8098    5.6969    1.6905 H   0  0  0  0  0  0
    6.4159    5.1479    2.1481 H   0  0  0  0  0  0
    2.1111    3.0485    2.4065 H   0  0  0  0  0  0
   -1.3331    2.2082   -1.1811 H   0  0  0  0  0  0
   -2.4638    1.0610   -1.8510 H   0  0  0  0  0  0
   -2.5807    1.5125   -0.1537 H   0  0  0  0  0  0
   -3.1337   -2.3776   -0.5734 H   0  0  0  0  0  0
   -3.6179   -0.7177   -0.8534 H   0  0  0  0  0  0
   -2.5402   -1.5395   -1.9982 H   0  0  0  0  0  0
   -0.7571   -0.3441   -2.6650 H   0  0  0  0  0  0
    0.4719    0.7106   -2.0735 H   0  0  0  0  0  0
    0.8567   -3.6088   -1.7216 H   0  0  0  0  0  0
   -0.4285   -2.8449   -0.9036 H   0  0  0  0  0  0
   -0.4522   -2.9053   -2.6615 H   0  0  0  0  0  0
  1  2  2  0  0  0
  1 71  1  0  0  0
  1 72  1  0  0  0
  2  3  1  0  0  0
  2 73  1  0  0  0
  3  4  1  0  0  0
  3 74  1  0  0  0
  3 75  1  0  0  0
  4  5  1  0  0  0
  5  6  2  0  0  0
  6 56  1  0  0  0
  6  7  1  0  0  0
  7 58  1  0  0  0
  7  8  1  0  0  0
  7  9  1  0  0  0
  8 76  1  0  0  0
  8 77  1  0  0  0
  8 78  1  0  0  0
  9 59  1  0  0  0
  9 14  1  0  0  0
  9 10  1  0  0  0
 10 11  1  0  0  0
 11 12  2  0  0  0
 11 13  1  0  0  0
 13 14  1  0  0  0
 14 15  1  0  0  0
 14 16  1  0  0  0
 15 79  1  0  0  0
 15 80  1  0  0  0
 15 81  1  0  0  0
 16 60  1  0  0  0
 16 17  1  0  0  0
 16 19  1  0  0  0
 17 18  1  0  0  0
 17 82  1  0  0  0
 17 83  1  0  0  0
 18 84  1  0  0  0
 18 85  1  0  0  0
 18 86  1  0  0  0
 19 20  1  0  0  0
 20 21  2  0  0  0
 20 22  1  0  0  0
 22 61  1  0  0  0
 22 23  1  0  0  0
 22 24  1  0  0  0
 23 87  1  0  0  0
 23 88  1  0  0  0
 23 89  1  0  0  0
 24 62  1  0  0  0
 24 25  1  0  0  0
 24 36  1  0  0  0
 25 26  1  0  0  0
 26 27  1  0  0  0
 26 90  1  0  0  0
 26 91  1  0  0  0
 27 28  3  0  0  0
 28 29  1  0  0  0
 29 35  1  0  0  0
 29 30  2  0  0  0
 30 31  1  0  0  0
 30 92  1  0  0  0
 31 32  2  0  0  0
 31 93  1  0  0  0
 32 33  1  0  0  0
 32 94  1  0  0  0
 33 34  1  0  0  0
 33 35  2  0  0  0
 34 95  1  0  0  0
 34 96  1  0  0  0
 36 63  1  0  0  0
 36 37  1  0  0  0
 36 38  1  0  0  0
 37 97  1  0  0  0
 37 98  1  0  0  0
 37 99  1  0  0  0
 38 64  1  0  0  0
 38 39  1  0  0  0
 38 51  1  0  0  0
 39 40  1  0  0  0
 40 65  1  0  0  0
 40 49  1  0  0  0
 40 41  1  0  0  0
 41 42  1  0  0  0
 42 66  1  0  0  0
 42 43  1  0  0  0
 42 44  1  0  0  0
 43100  1  0  0  0
 43101  1  0  0  0
 43102  1  0  0  0
 44 45  1  0  0  0
 44103  1  0  0  0
 44104  1  0  0  0
 45 67  1  0  0  0
 45 46  1  0  0  0
 45 49  1  0  0  0
 46 68  1  0  0  0
 46 47  1  0  0  0
 46 48  1  0  0  0
 47105  1  0  0  0
 47106  1  0  0  0
 47107  1  0  0  0
 48108  1  0  0  0
 48109  1  0  0  0
 48110  1  0  0  0
 49 69  1  0  0  0
 49 50  1  0  0  0
 50111  1  0  0  0
 51 52  1  0  0  0
 51 53  1  0  0  0
 51 55  1  0  0  0
 52112  1  0  0  0
 52113  1  0  0  0
 52114  1  0  0  0
 53 54  1  0  0  0
 54115  1  0  0  0
 54116  1  0  0  0
 54117  1  0  0  0
 55 56  1  0  0  0
 55118  1  0  0  0
 55119  1  0  0  0
 56 70  1  0  0  0
 56 57  1  0  0  0
 57120  1  0  0  0
 57121  1  0  0  0
 57122  1  0  0  0
M  CHG  1  46   1
M  END
$$$$
213
                    3D
 Schrodinger Suite 2021-2.
120125  0  0  1  0            999 V2000
    2.6141    3.5991   -1.1602 C   0  0  0  0  0  0
    1.7562    2.8162   -2.1446 C   0  0  0  0  0  0
    2.0418    1.6677   -2.4814 O   0  0  0  0  0  0
    0.6978    3.5345   -2.5701 O   0  0  0  0  0  0
   -0.2423    3.0685   -3.5493 C   0  0  1  0  0  0
   -0.7097    4.3393   -4.2764 C   0  0  0  0  0  0
   -0.1104    3.9289   -5.5233 O   0  0  0  0  0  0
    0.4557    2.7556   -4.8907 C   0  0  2  0  0  0
    0.0726    1.5165   -5.6941 C   0  0  0  0  0  0
   -0.7918    0.5013   -4.9187 C   0  0  2  0  0  0
   -1.2690   -0.4203   -5.8870 O   0  0  0  0  0  0
   -1.9417    1.1339   -4.0628 C   0  0  1  0  0  0
   -2.8652    1.9864   -4.9902 C   0  0  0  0  0  0
   -2.8143   -0.0450   -3.5082 C   0  0  0  0  0  0
   -3.9483   -0.2373   -3.9552 O   0  0  0  0  0  0
   -2.2635   -1.0503   -2.4666 C   0  0  2  0  0  0
   -3.1584   -2.1393   -2.2508 O   0  0  0  0  0  0
   -3.1526   -3.2228   -3.0556 C   0  0  0  0  0  0
   -2.3806   -3.4147   -3.9953 O   0  0  0  0  0  0
   -4.2001   -4.2271   -2.6683 C   0  0  0  0  0  0
   -5.3325   -4.4456   -3.6488 C   0  0  0  0  0  0
   -5.5969   -3.7311   -2.3495 C   0  0  0  0  0  0
   -1.9096   -0.3903   -1.1354 C   0  0  0  0  0  0
   -0.6332   -0.4198   -0.6725 C   0  0  0  0  0  0
    0.4671   -1.2924   -1.2712 C   0  0  0  0  0  0
   -0.1802    0.5636    0.4077 C   0  0  1  0  0  0
    1.2311    0.7505    0.4033 O   0  0  0  0  0  0
    1.8789    1.1403    1.5235 C   0  0  0  0  0  0
    1.3477    1.6070    2.5308 O   0  0  0  0  0  0
    3.3873    0.8460    1.4970 C   0  0  2  0  0  0
    3.8802    0.7976    0.1687 O   0  0  0  0  0  0
    3.7665   -0.4495    2.2670 C   0  0  2  0  0  0
    5.2615   -0.7293    2.2085 C   0  0  0  0  0  0
    6.1958   -0.3876    3.1195 C   0  0  0  0  0  0
    7.6496   -0.7766    2.9347 C   0  0  0  0  0  0
    5.9198    0.3930    4.3942 C   0  0  0  0  0  0
    3.0246   -1.6240    1.7971 N   0  0  0  0  0  0
    1.9009   -2.1465    2.4217 C   0  0  0  0  0  0
    1.3858   -1.7323    3.4601 O   0  0  0  0  0  0
    1.4484   -3.1812    1.6746 O   0  0  0  0  0  0
    0.2815   -3.9568    1.9842 C   0  0  0  0  0  0
   -1.0007   -3.0950    1.9943 C   0  0  0  0  0  0
    0.4607   -4.7256    3.3108 C   0  0  0  0  0  0
    0.1852   -4.9658    0.8269 C   0  0  0  0  0  0
   -0.9423    1.9237    0.3545 C   0  0  0  0  0  0
   -2.3159    1.9303   -0.3993 C   0  0  1  0  0  0
   -3.2127    2.7134    0.3769 O   0  0  0  0  0  0
   -2.2365    2.6418   -1.8256 C   0  0  1  0  0  0
   -1.8509    3.9939   -1.5560 O   0  0  0  0  0  0
   -2.7086    5.0365   -1.6749 C   0  0  0  0  0  0
   -3.8827    4.9256   -2.0319 O   0  0  0  0  0  0
   -2.0700    6.3391   -1.3337 C   0  0  0  0  0  0
   -2.8161    7.5329   -1.4655 C   0  0  0  0  0  0
   -2.2379    8.7779   -1.1507 C   0  0  0  0  0  0
   -0.9066    8.8435   -0.6997 C   0  0  0  0  0  0
   -0.1540    7.6625   -0.5634 C   0  0  0  0  0  0
   -0.7305    6.4167   -0.8775 C   0  0  0  0  0  0
   -1.2661    2.0426   -2.9401 C   0  0  2  0  0  0
   -2.9507    0.4996   -0.4146 C   0  0  0  0  0  0
   -4.4050    0.5167   -0.9889 C   0  0  0  0  0  0
   -3.1988   -0.0905    1.0102 C   0  0  0  0  0  0
    1.5389    2.8736   -4.8413 H   0  0  0  0  0  0
   -0.1266   -0.0523   -4.2546 H   0  0  0  0  0  0
   -1.3604   -1.4426   -2.9251 H   0  0  0  0  0  0
   -0.3862    0.0616    1.3513 H   0  0  0  0  0  0
    3.8834    1.6884    1.9802 H   0  0  0  0  0  0
    3.4997   -0.2974    3.3121 H   0  0  0  0  0  0
   -3.2332    2.6574   -2.2577 H   0  0  0  0  0  0
   -0.6094    1.3685   -2.4129 H   0  0  0  0  0  0
    2.6947    4.6413   -1.4700 H   0  0  0  0  0  0
    2.1711    3.5685   -0.1650 H   0  0  0  0  0  0
    3.6183    3.1790   -1.1085 H   0  0  0  0  0  0
   -1.7897    4.4532   -4.3516 H   0  0  0  0  0  0
   -0.2662    5.2641   -3.9031 H   0  0  0  0  0  0
   -0.4451    1.8199   -6.6056 H   0  0  0  0  0  0
    0.9748    1.0135   -6.0441 H   0  0  0  0  0  0
   -1.7498   -1.1051   -5.4472 H   0  0  0  0  0  0
   -2.3330    2.7223   -5.5826 H   0  0  0  0  0  0
   -3.3834    1.3776   -5.7325 H   0  0  0  0  0  0
   -3.6278    2.5212   -4.4240 H   0  0  0  0  0  0
   -3.8458   -5.1127   -2.1449 H   0  0  0  0  0  0
   -5.3496   -3.8487   -4.5592 H   0  0  0  0  0  0
   -5.7175   -5.4580   -3.7513 H   0  0  0  0  0  0
   -6.1557   -4.2683   -1.5862 H   0  0  0  0  0  0
   -5.7965   -2.6621   -2.4027 H   0  0  0  0  0  0
    1.1714   -1.6070   -0.5032 H   0  0  0  0  0  0
    0.0803   -2.2136   -1.7048 H   0  0  0  0  0  0
    1.0190   -0.7477   -2.0360 H   0  0  0  0  0  0
    3.4718    0.0699   -0.2747 H   0  0  0  0  0  0
    5.5832   -1.2680    1.3287 H   0  0  0  0  0  0
    7.9829   -1.3951    3.7683 H   0  0  0  0  0  0
    7.8030   -1.3394    2.0134 H   0  0  0  0  0  0
    8.2776    0.1140    2.8953 H   0  0  0  0  0  0
    6.6371    1.2083    4.4915 H   0  0  0  0  0  0
    4.9280    0.8400    4.4227 H   0  0  0  0  0  0
    6.0285   -0.2567    5.2626 H   0  0  0  0  0  0
    3.3222   -2.0814    0.9477 H   0  0  0  0  0  0
   -1.1231   -2.5593    1.0543 H   0  0  0  0  0  0
   -1.8866   -3.7164    2.1291 H   0  0  0  0  0  0
   -1.0061   -2.3593    2.7976 H   0  0  0  0  0  0
    1.3799   -5.3122    3.3065 H   0  0  0  0  0  0
    0.4985   -4.0594    4.1721 H   0  0  0  0  0  0
   -0.3677   -5.4144    3.4785 H   0  0  0  0  0  0
    1.0770   -5.5908    0.7689 H   0  0  0  0  0  0
   -0.6730   -5.6278    0.9475 H   0  0  0  0  0  0
    0.0766   -4.4594   -0.1331 H   0  0  0  0  0  0
   -1.0847    2.2453    1.3872 H   0  0  0  0  0  0
   -0.2907    2.6848   -0.0710 H   0  0  0  0  0  0
   -4.0545    2.7210   -0.0530 H   0  0  0  0  0  0
   -3.8399    7.5065   -1.8102 H   0  0  0  0  0  0
   -2.8174    9.6831   -1.2550 H   0  0  0  0  0  0
   -0.4638    9.7981   -0.4568 H   0  0  0  0  0  0
    0.8673    7.7110   -0.2154 H   0  0  0  0  0  0
   -0.1252    5.5299   -0.7583 H   0  0  0  0  0  0
   -5.1049    0.9755   -0.2899 H   0  0  0  0  0  0
   -4.5321    1.0962   -1.8970 H   0  0  0  0  0  0
   -4.7869   -0.4875   -1.1701 H   0  0  0  0  0  0
   -3.9590    0.4663    1.5593 H   0  0  0  0  0  0
   -3.5556   -1.1191    0.9406 H   0  0  0  0  0  0
   -2.3386   -0.1112    1.6676 H   0  0  0  0  0  0
  1  2  1  0  0  0
  1 70  1  0  0  0
  1 71  1  0  0  0
  1 72  1  0  0  0
  2  3  2  0  0  0
  2  4  1  0  0  0
  4  5  1  0  0  0
  5  8  1  0  0  0
  5 58  1  0  0  0
  5  6  1  0  0  0
  6  7  1  0  0  0
  6 73  1  0  0  0
  6 74  1  0  0  0
  7  8  1  0  0  0
  8 62  1  0  0  0
  8  9  1  0  0  0
  9 10  1  0  0  0
  9 75  1  0  0  0
  9 76  1  0  0  0
 10 63  1  0  0  0
 10 11  1  0  0  0
 10 12  1  0  0  0
 11 77  1  0  0  0
 12 58  1  0  0  0
 12 13  1  0  0  0
 12 14  1  0  0  0
 13 78  1  0  0  0
 13 79  1  0  0  0
 13 80  1  0  0  0
 14 15  2  0  0  0
 14 16  1  0  0  0
 16 64  1  0  0  0
 16 17  1  0  0  0
 16 23  1  0  0  0
 17 18  1  0  0  0
 18 19  2  0  0  0
 18 20  1  0  0  0
 20 22  1  0  0  0
 20 21  1  0  0  0
 20 81  1  0  0  0
 21 22  1  0  0  0
 21 82  1  0  0  0
 21 83  1  0  0  0
 22 84  1  0  0  0
 22 85  1  0  0  0
 23 59  1  0  0  0
 23 24  2  0  0  0
 24 25  1  0  0  0
 24 26  1  0  0  0
 25 86  1  0  0  0
 25 87  1  0  0  0
 25 88  1  0  0  0
 26 65  1  0  0  0
 26 27  1  0  0  0
 26 45  1  0  0  0
 27 28  1  0  0  0
 28 29  2  0  0  0
 28 30  1  0  0  0
 30 66  1  0  0  0
 30 31  1  0  0  0
 30 32  1  0  0  0
 31 89  1  0  0  0
 32 67  1  0  0  0
 32 33  1  0  0  0
 32 37  1  0  0  0
 33 34  2  3  0  0
 33 90  1  0  0  0
 34 35  1  0  0  0
 34 36  1  0  0  0
 35 91  1  0  0  0
 35 92  1  0  0  0
 35 93  1  0  0  0
 36 94  1  0  0  0
 36 95  1  0  0  0
 36 96  1  0  0  0
 37 38  1  0  0  0
 37 97  1  0  0  0
 38 39  2  0  0  0
 38 40  1  0  0  0
 40 41  1  0  0  0
 41 42  1  0  0  0
 41 43  1  0  0  0
 41 44  1  0  0  0
 42 98  1  0  0  0
 42 99  1  0  0  0
 42100  1  0  0  0
 43101  1  0  0  0
 43102  1  0  0  0
 43103  1  0  0  0
 44104  1  0  0  0
 44105  1  0  0  0
 44106  1  0  0  0
 45 46  1  0  0  0
 45107  1  0  0  0
 45108  1  0  0  0
 46 47  1  0  0  0
 46 48  1  0  0  0
 46 59  1  0  0  0
 47109  1  0  0  0
 48 68  1  0  0  0
 48 49  1  0  0  0
 48 58  1  0  0  0
 49 50  1  0  0  0
 50 51  2  0  0  0
 50 52  1  0  0  0
 52 57  1  0  0  0
 52 53  2  0  0  0
 53 54  1  0  0  0
 53110  1  0  0  0
 54 55  2  0  0  0
 54111  1  0  0  0
 55 56  1  0  0  0
 55112  1  0  0  0
 56 57  2  0  0  0
 56113  1  0  0  0
 57114  1  0  0  0
 58 69  1  0  0  0
 59 60  1  0  0  0
 59 61  1  0  0  0
 60115  1  0  0  0
 60116  1  0  0  0
 60117  1  0  0  0
 61118  1  0  0  0
 61119  1  0  0  0
 61120  1  0  0  0
M  END
$$$$
214
                    3D
 Schrodinger Suite 2021-2.
122126  0  0  1  0            999 V2000
   -2.7870   -5.0322    0.2847 C   0  0  0  0  0  0
   -4.0272   -4.1865   -0.0322 C   0  0  0  0  0  0
   -4.6088   -3.4077    1.1758 C   0  0  1  0  0  0
   -3.6293   -2.5236    1.7284 O   0  0  0  0  0  0
   -2.8959   -2.8401    2.8157 C   0  0  0  0  0  0
   -2.9159   -3.9280    3.3936 O   0  0  0  0  0  0
   -2.0363   -1.6630    3.3182 C   0  0  1  0  0  0
   -1.4320   -1.9375    4.7105 C   0  0  0  0  0  0
   -0.9211   -1.3173    2.3007 C   0  0  0  0  0  0
    0.0648   -2.0473    2.2096 O   0  0  0  0  0  0
   -0.9456    0.0378    1.5502 C   0  0  2  0  0  0
   -2.2423    0.8486    1.7081 C   0  0  0  0  0  0
   -0.3363    0.1034    0.0963 C   0  0  1  0  0  0
    1.0895    0.1041    0.1982 O   0  0  0  0  0  0
    1.7144    1.3035    0.5376 C   0  0  2  0  0  0
    1.5793    2.2362   -0.4972 O   0  0  0  0  0  0
    2.1671    3.5035   -0.2230 C   0  0  2  0  0  0
    1.7851    4.4830   -1.3363 C   0  0  0  0  0  0
    3.6855    3.3071   -0.1251 C   0  0  0  0  0  0
    3.9982    2.2835    0.9805 C   0  0  2  0  0  0
    5.4606    2.0311    1.1545 N   0  3  0  0  0  0
    6.2041    1.6765   -0.0788 C   0  0  0  0  0  0
    6.1474    3.0922    1.9257 C   0  0  0  0  0  0
    3.2132    0.9737    0.7311 C   0  0  1  0  0  0
    3.3934    0.1562    1.8723 O   0  0  0  0  0  0
   -0.6862   -0.9441   -1.0314 C   0  0  2  0  0  0
    0.0716   -2.2913   -0.8354 C   0  0  0  0  0  0
   -0.1394   -0.3127   -2.2078 O   0  0  0  0  0  0
   -0.1250   -0.8389   -3.4698 C   0  0  0  0  0  0
   -0.7216   -1.8529   -3.8266 O   0  0  0  0  0  0
    0.6644   -0.0653   -4.3127 N   0  0  0  0  0  0
    1.4329    1.1168   -3.9361 C   0  0  0  0  0  0
    0.5566    2.3499   -3.8631 C   0  0  0  0  0  0
    0.7185    3.4406   -4.6329 C   0  0  0  0  0  0
   -0.0958    4.6676   -4.5910 C   0  0  0  0  0  0
   -1.2254    4.8057   -3.7537 C   0  0  0  0  0  0
   -1.9588    6.0076   -3.7301 C   0  0  0  0  0  0
   -1.5836    7.1063   -4.5416 C   0  0  0  0  0  0
   -2.3511    8.3757   -4.5100 C   0  0  0  0  0  0
   -1.9580    9.3649   -5.3260 N   0  0  0  0  0  0
   -2.6488   10.5246   -5.2986 C   0  0  0  0  0  0
   -3.7519   10.7077   -4.4444 C   0  0  0  0  0  0
   -4.0877    9.6131   -3.6265 C   0  0  0  0  0  0
   -3.3887    8.4586   -3.6641 N   0  0  0  0  0  0
   -0.4529    6.9598   -5.3814 C   0  0  0  0  0  0
    0.2788    5.7571   -5.4033 C   0  0  0  0  0  0
   -2.2038   -1.2784   -1.1834 C   0  0  0  0  0  0
   -3.2940   -0.2018   -1.4550 C   0  0  1  0  0  0
   -2.9837    0.7580   -2.6149 C   0  0  0  0  0  0
   -4.6471   -0.8997   -1.7266 C   0  0  0  0  0  0
   -4.7559   -1.7214   -2.6360 O   0  0  0  0  0  0
   -5.8789   -0.5416   -0.8769 C   0  0  2  0  0  0
   -6.1528    0.9747   -0.9572 C   0  0  0  0  0  0
   -5.7889   -1.0712    0.5826 C   0  0  1  0  0  0
   -6.8239   -0.5373    1.4317 N   0  0  0  0  0  0
   -7.2598   -1.4246    2.3823 C   0  0  0  0  0  0
   -8.0327   -1.2215    3.3146 O   0  0  0  0  0  0
   -6.6599   -2.5875    2.0996 O   0  0  0  0  0  0
   -5.9231   -2.6053    0.8752 C   0  0  2  0  0  0
   -6.8730   -3.3309   -0.1093 C   0  0  0  0  0  0
   -4.8703   -4.1634    1.9183 H   0  0  0  0  0  0
   -0.2596    0.6142    2.1647 H   0  0  0  0  0  0
   -0.6315    1.0717   -0.3116 H   0  0  0  0  0  0
    1.2898    1.7242    1.4488 H   0  0  0  0  0  0
    1.7753    3.8893    0.7198 H   0  0  0  0  0  0
    3.6300    2.6985    1.9212 H   0  0  0  0  0  0
    5.5072    1.2098    1.7417 H   0  0  0  0  0  0
    3.5674    0.4539   -0.1592 H   0  0  0  0  0  0
   -3.4159    0.4120   -0.5695 H   0  0  0  0  0  0
   -6.7305   -1.0218   -1.3585 H   0  0  0  0  0  0
   -4.8915   -0.6630    1.0231 H   0  0  0  0  0  0
   -2.4753   -5.6028   -0.5902 H   0  0  0  0  0  0
   -1.9436   -4.4134    0.5859 H   0  0  0  0  0  0
   -2.9889   -5.7405    1.0886 H   0  0  0  0  0  0
   -3.8070   -3.5155   -0.8564 H   0  0  0  0  0  0
   -4.7786   -4.8779   -0.4113 H   0  0  0  0  0  0
   -2.7146   -0.8222    3.4377 H   0  0  0  0  0  0
   -0.7791   -2.8120    4.7102 H   0  0  0  0  0  0
   -0.8436   -1.0869    5.0559 H   0  0  0  0  0  0
   -2.2145   -2.1084    5.4508 H   0  0  0  0  0  0
   -2.3488    1.2189    2.7282 H   0  0  0  0  0  0
   -2.2634    1.7244    1.0595 H   0  0  0  0  0  0
   -3.1137    0.2489    1.4914 H   0  0  0  0  0  0
    2.1718    5.4813   -1.1308 H   0  0  0  0  0  0
    2.1895    4.1642   -2.2964 H   0  0  0  0  0  0
    0.7022    4.5604   -1.4342 H   0  0  0  0  0  0
    4.0568    2.9629   -1.0908 H   0  0  0  0  0  0
    4.1706    4.2609    0.0828 H   0  0  0  0  0  0
    6.3057    2.5330   -0.7459 H   0  0  0  0  0  0
    7.2089    1.3384    0.1764 H   0  0  0  0  0  0
    5.7215    0.8679   -0.6262 H   0  0  0  0  0  0
    6.1661    4.0332    1.3752 H   0  0  0  0  0  0
    5.6534    3.2633    2.8827 H   0  0  0  0  0  0
    7.1778    2.8044    2.1370 H   0  0  0  0  0  0
    2.9537    0.5569    2.6066 H   0  0  0  0  0  0
   -0.3293   -2.8682   -0.0093 H   0  0  0  0  0  0
   -0.0273   -2.9564   -1.6910 H   0  0  0  0  0  0
    1.1406   -2.1588   -0.6705 H   0  0  0  0  0  0
    0.7226   -0.3814   -5.2701 H   0  0  0  0  0  0
    1.9379    0.9679   -2.9806 H   0  0  0  0  0  0
    2.2164    1.2633   -4.6798 H   0  0  0  0  0  0
   -0.2260    2.3137   -3.1234 H   0  0  0  0  0  0
    1.5199    3.4337   -5.3580 H   0  0  0  0  0  0
   -1.5485    3.9977   -3.1154 H   0  0  0  0  0  0
   -2.8143    6.0671   -3.0738 H   0  0  0  0  0  0
   -2.3186   11.3102   -5.9619 H   0  0  0  0  0  0
   -4.3079   11.6332   -4.4178 H   0  0  0  0  0  0
   -4.9198    9.6627   -2.9399 H   0  0  0  0  0  0
   -0.1240    7.7666   -6.0196 H   0  0  0  0  0  0
    1.1402    5.6786   -6.0508 H   0  0  0  0  0  0
   -2.3000   -2.0637   -1.9316 H   0  0  0  0  0  0
   -2.4831   -1.7657   -0.2580 H   0  0  0  0  0  0
   -3.8168    1.4337   -2.8086 H   0  0  0  0  0  0
   -2.1265    1.3854   -2.3795 H   0  0  0  0  0  0
   -2.7770    0.2223   -3.5413 H   0  0  0  0  0  0
   -6.0987    1.3385   -1.9839 H   0  0  0  0  0  0
   -7.1531    1.2134   -0.5957 H   0  0  0  0  0  0
   -5.4413    1.5467   -0.3606 H   0  0  0  0  0  0
   -7.1168    0.4291    1.4499 H   0  0  0  0  0  0
   -6.4574   -3.3802   -1.1154 H   0  0  0  0  0  0
   -7.0714   -4.3526    0.2162 H   0  0  0  0  0  0
   -7.8366   -2.8257   -0.1866 H   0  0  0  0  0  0
  1  2  1  0  0  0
  1 72  1  0  0  0
  1 73  1  0  0  0
  1 74  1  0  0  0
  2  3  1  0  0  0
  2 75  1  0  0  0
  2 76  1  0  0  0
  3 61  1  0  0  0
  3 59  1  0  0  0
  3  4  1  0  0  0
  4  5  1  0  0  0
  5  6  2  0  0  0
  5  7  1  0  0  0
  7  8  1  0  0  0
  7  9  1  0  0  0
  7 77  1  0  0  0
  8 78  1  0  0  0
  8 79  1  0  0  0
  8 80  1  0  0  0
  9 10  2  0  0  0
  9 11  1  0  0  0
 11 62  1  0  0  0
 11 12  1  0  0  0
 11 13  1  0  0  0
 12 81  1  0  0  0
 12 82  1  0  0  0
 12 83  1  0  0  0
 13 63  1  0  0  0
 13 14  1  0  0  0
 13 26  1  0  0  0
 14 15  1  0  0  0
 15 64  1  0  0  0
 15 24  1  0  0  0
 15 16  1  0  0  0
 16 17  1  0  0  0
 17 65  1  0  0  0
 17 18  1  0  0  0
 17 19  1  0  0  0
 18 84  1  0  0  0
 18 85  1  0  0  0
 18 86  1  0  0  0
 19 20  1  0  0  0
 19 87  1  0  0  0
 19 88  1  0  0  0
 20 66  1  0  0  0
 20 21  1  0  0  0
 20 24  1  0  0  0
 21 67  1  0  0  0
 21 22  1  0  0  0
 21 23  1  0  0  0
 22 89  1  0  0  0
 22 90  1  0  0  0
 22 91  1  0  0  0
 23 92  1  0  0  0
 23 93  1  0  0  0
 23 94  1  0  0  0
 24 68  1  0  0  0
 24 25  1  0  0  0
 25 95  1  0  0  0
 26 27  1  0  0  0
 26 28  1  0  0  0
 26 47  1  0  0  0
 27 96  1  0  0  0
 27 97  1  0  0  0
 27 98  1  0  0  0
 28 29  1  0  0  0
 29 30  2  0  0  0
 29 31  1  0  0  0
 31 32  1  0  0  0
 31 99  1  0  0  0
 32 33  1  0  0  0
 32100  1  0  0  0
 32101  1  0  0  0
 33 34  2  0  0  0
 33102  1  0  0  0
 34 35  1  0  0  0
 34103  1  0  0  0
 35 46  1  0  0  0
 35 36  2  0  0  0
 36 37  1  0  0  0
 36104  1  0  0  0
 37 38  2  0  0  0
 37105  1  0  0  0
 38 39  1  0  0  0
 38 45  1  0  0  0
 39 44  1  0  0  0
 39 40  2  0  0  0
 40 41  1  0  0  0
 41 42  2  0  0  0
 41106  1  0  0  0
 42 43  1  0  0  0
 42107  1  0  0  0
 43 44  2  0  0  0
 43108  1  0  0  0
 45 46  2  0  0  0
 45109  1  0  0  0
 46110  1  0  0  0
 47 48  1  0  0  0
 47111  1  0  0  0
 47112  1  0  0  0
 48 69  1  0  0  0
 48 49  1  0  0  0
 48 50  1  0  0  0
 49113  1  0  0  0
 49114  1  0  0  0
 49115  1  0  0  0
 50 51  2  0  0  0
 50 52  1  0  0  0
 52 70  1  0  0  0
 52 53  1  0  0  0
 52 54  1  0  0  0
 53116  1  0  0  0
 53117  1  0  0  0
 53118  1  0  0  0
 54 71  1  0  0  0
 54 59  1  0  0  0
 54 55  1  0  0  0
 55 56  1  0  0  0
 55119  1  0  0  0
 56 57  2  0  0  0
 56 58  1  0  0  0
 58 59  1  0  0  0
 59 60  1  0  0  0
 60120  1  0  0  0
 60121  1  0  0  0
 60122  1  0  0  0
M  CHG  1  21   1
M  END
$$$$
215
                    3D
 Schrodinger Suite 2021-2.
125127  0  0  1  0            999 V2000
   -2.9782   -2.3355   -3.0355 C   0  0  0  0  0  0
   -2.1100   -2.4480   -2.0190 C   0  0  0  0  0  0
   -2.1819   -1.6435   -0.7356 C   0  0  0  0  0  0
   -0.9572   -0.7376   -0.5281 C   0  0  0  0  0  0
    0.3449   -1.5096   -0.2439 C   0  0  0  0  0  0
    1.5528   -0.5859    0.0413 C   0  0  2  0  0  0
    1.8257    0.1275   -1.1665 O   0  0  0  0  0  0
    1.7239    1.4729   -1.2325 C   0  0  0  0  0  0
    1.3592    2.2175   -0.3234 O   0  0  0  0  0  0
    2.0898    2.0258   -2.6081 C   0  0  0  0  0  0
    3.3714    1.4938   -3.0583 N   0  0  0  0  0  0
    4.5353    2.1638   -3.0602 C   0  0  0  0  0  0
    4.6525    3.3108   -2.6297 O   0  0  0  0  0  0
    5.7567    1.4311   -3.6420 C   0  0  2  0  0  0
    5.6362    1.1519   -5.1763 C   0  0  1  0  0  0
    5.4237    2.4591   -5.9715 C   0  0  0  0  0  0
    6.8283    0.3720   -5.7883 C   0  0  0  0  0  0
    6.6482   -1.1540   -5.8055 C   0  0  0  0  0  0
    5.9621    0.2039   -2.8679 N   0  0  0  0  0  0
    7.0777   -0.3019   -2.3078 C   0  0  0  0  0  0
    6.9983   -1.3114   -1.6092 O   0  0  0  0  0  0
    8.4650    0.3477   -2.5428 C   0  0  2  0  0  0
    9.4472   -0.6713   -3.1431 C   0  0  0  0  0  0
   10.1272   -1.3065   -1.9427 C   0  0  0  0  0  0
   10.1594   -0.1836   -0.9070 C   0  0  0  0  0  0
    9.0891    0.7491   -1.2719 N   0  0  0  0  0  0
    8.7388    1.8816   -0.6111 C   0  0  0  0  0  0
    7.8931    2.6494   -1.0732 O   0  0  0  0  0  0
    9.3430    2.2411    0.7679 C   0  0  2  0  0  0
   10.8851    2.4632    0.8323 C   0  0  1  0  0  0
   11.4421    3.2788   -0.3536 C   0  0  0  0  0  0
   11.3564    3.0630    2.1797 C   0  0  0  0  0  0
   10.9275    4.5142    2.4536 C   0  0  0  0  0  0
    8.9113    1.2509    1.7045 O   0  0  0  0  0  0
    8.2214    1.5825    2.8218 C   0  0  0  0  0  0
    8.0295    2.7328    3.2191 O   0  0  0  0  0  0
    7.6750    0.3325    3.5541 C   0  0  2  0  0  0
    7.3714   -0.9143    2.6673 C   0  0  0  0  0  0
    8.5277   -1.7958    2.2041 C   0  0  0  0  0  0
    8.2595   -2.7878    1.2365 C   0  0  0  0  0  0
    9.2823   -3.6422    0.7828 C   0  0  0  0  0  0
   10.5880   -3.5081    1.2896 C   0  0  0  0  0  0
   10.8662   -2.5236    2.2560 C   0  0  0  0  0  0
    9.8417   -1.6733    2.7156 C   0  0  0  0  0  0
    6.5335    0.6693    4.4395 N   0  0  0  0  0  0
    6.8257    0.5554    5.8749 C   0  0  0  0  0  0
    5.2470    0.9211    4.0617 C   0  0  0  0  0  0
    4.3264    0.9231    4.8815 O   0  0  0  0  0  0
    4.8866    1.2681    2.5998 C   0  0  2  0  0  0
    4.4134    2.7356    2.3861 C   0  0  0  0  0  0
    2.9628    3.0073    2.8319 C   0  0  0  0  0  0
    4.6366    3.2198    0.9418 C   0  0  0  0  0  0
    3.9254    0.2923    2.0859 N   0  0  0  0  0  0
    3.9274   -0.2510    0.8565 C   0  0  0  0  0  0
    4.7467    0.0768   -0.0010 O   0  0  0  0  0  0
    2.8463   -1.3146    0.5334 C   0  0  0  0  0  0
    2.5613   -2.1520    1.8070 C   0  0  0  0  0  0
    3.3932   -2.2821   -0.5474 C   0  0  0  0  0  0
    1.2489    0.1020    0.8321 H   0  0  0  0  0  0
    6.5888    2.1154   -3.4905 H   0  0  0  0  0  0
    4.7408    0.5501   -5.3412 H   0  0  0  0  0  0
    8.4245    1.2010   -3.2141 H   0  0  0  0  0  0
    8.8897    3.2072    0.9942 H   0  0  0  0  0  0
   11.3631    1.4865    0.8006 H   0  0  0  0  0  0
    8.4643    0.0206    4.2333 H   0  0  0  0  0  0
    5.7801    1.1876    1.9962 H   0  0  0  0  0  0
   -2.8725   -2.9400   -3.9245 H   0  0  0  0  0  0
   -3.8040   -1.6401   -2.9951 H   0  0  0  0  0  0
   -1.2986   -3.1563   -2.1002 H   0  0  0  0  0  0
   -3.0834   -1.0297   -0.7524 H   0  0  0  0  0  0
   -2.2921   -2.3294    0.1049 H   0  0  0  0  0  0
   -0.8352   -0.0969   -1.4019 H   0  0  0  0  0  0
   -1.1572   -0.0696    0.3105 H   0  0  0  0  0  0
    0.1597   -2.1575    0.6114 H   0  0  0  0  0  0
    0.5759   -2.1659   -1.0825 H   0  0  0  0  0  0
    1.3173    1.7404   -3.3222 H   0  0  0  0  0  0
    2.1093    3.1158   -2.5737 H   0  0  0  0  0  0
    3.3686    0.5509   -3.4189 H   0  0  0  0  0  0
    6.2646    3.1410   -5.8398 H   0  0  0  0  0  0
    5.3214    2.2614   -7.0390 H   0  0  0  0  0  0
    4.5187    2.9855   -5.6688 H   0  0  0  0  0  0
    6.9683    0.6735   -6.8268 H   0  0  0  0  0  0
    7.7595    0.6421   -5.2943 H   0  0  0  0  0  0
    7.5136   -1.6364   -6.2603 H   0  0  0  0  0  0
    6.5305   -1.5721   -4.8079 H   0  0  0  0  0  0
    5.7709   -1.4370   -6.3876 H   0  0  0  0  0  0
    5.1148   -0.3050   -2.6627 H   0  0  0  0  0  0
    8.9744   -1.4085   -3.7937 H   0  0  0  0  0  0
   10.1912   -0.1446   -3.7423 H   0  0  0  0  0  0
    9.5239   -2.1362   -1.5767 H   0  0  0  0  0  0
   11.1186   -1.6974   -2.1728 H   0  0  0  0  0  0
   10.0568   -0.5654    0.1062 H   0  0  0  0  0  0
   11.1194    0.3225   -0.9947 H   0  0  0  0  0  0
   10.9368    4.2401   -0.4494 H   0  0  0  0  0  0
   12.5078    3.4732   -0.2308 H   0  0  0  0  0  0
   11.3248    2.7517   -1.3003 H   0  0  0  0  0  0
   11.0153    2.4314    2.9999 H   0  0  0  0  0  0
   12.4452    3.0172    2.2200 H   0  0  0  0  0  0
   11.3049    4.8448    3.4214 H   0  0  0  0  0  0
   11.3205    5.1991    1.7026 H   0  0  0  0  0  0
    9.8445    4.6254    2.4758 H   0  0  0  0  0  0
    6.7001   -1.5778    3.2140 H   0  0  0  0  0  0
    6.8303   -0.6304    1.7671 H   0  0  0  0  0  0
    7.2615   -2.8963    0.8368 H   0  0  0  0  0  0
    9.0655   -4.3959    0.0403 H   0  0  0  0  0  0
   11.3748   -4.1588    0.9377 H   0  0  0  0  0  0
   11.8679   -2.4199    2.6460 H   0  0  0  0  0  0
   10.0940   -0.9299    3.4546 H   0  0  0  0  0  0
    6.5813   -0.4462    6.2304 H   0  0  0  0  0  0
    7.8766    0.7443    6.0960 H   0  0  0  0  0  0
    6.2620    1.2765    6.4695 H   0  0  0  0  0  0
    5.0532    3.3675    3.0045 H   0  0  0  0  0  0
    2.2468    2.4191    2.2586 H   0  0  0  0  0  0
    2.8118    2.7792    3.8862 H   0  0  0  0  0  0
    2.7054    4.0575    2.6931 H   0  0  0  0  0  0
    4.0148    2.6771    0.2327 H   0  0  0  0  0  0
    4.3968    4.2784    0.8408 H   0  0  0  0  0  0
    5.6754    3.0924    0.6361 H   0  0  0  0  0  0
    3.2143   -0.0154    2.7335 H   0  0  0  0  0  0
    1.9883   -3.0513    1.5812 H   0  0  0  0  0  0
    3.4845   -2.4879    2.2823 H   0  0  0  0  0  0
    1.9939   -1.5857    2.5470 H   0  0  0  0  0  0
    2.7016   -3.1017   -0.7413 H   0  0  0  0  0  0
    3.5743   -1.7816   -1.4996 H   0  0  0  0  0  0
    4.3371   -2.7319   -0.2351 H   0  0  0  0  0  0
  1  2  2  0  0  0
  1 67  1  0  0  0
  1 68  1  0  0  0
  2  3  1  0  0  0
  2 69  1  0  0  0
  3  4  1  0  0  0
  3 70  1  0  0  0
  3 71  1  0  0  0
  4  5  1  0  0  0
  4 72  1  0  0  0
  4 73  1  0  0  0
  5  6  1  0  0  0
  5 74  1  0  0  0
  5 75  1  0  0  0
  6 59  1  0  0  0
  6 56  1  0  0  0
  6  7  1  0  0  0
  7  8  1  0  0  0
  8  9  2  0  0  0
  8 10  1  0  0  0
 10 11  1  0  0  0
 10 76  1  0  0  0
 10 77  1  0  0  0
 11 12  1  0  0  0
 11 78  1  0  0  0
 12 13  2  0  0  0
 12 14  1  0  0  0
 14 60  1  0  0  0
 14 15  1  0  0  0
 14 19  1  0  0  0
 15 61  1  0  0  0
 15 16  1  0  0  0
 15 17  1  0  0  0
 16 79  1  0  0  0
 16 80  1  0  0  0
 16 81  1  0  0  0
 17 18  1  0  0  0
 17 82  1  0  0  0
 17 83  1  0  0  0
 18 84  1  0  0  0
 18 85  1  0  0  0
 18 86  1  0  0  0
 19 20  1  0  0  0
 19 87  1  0  0  0
 20 21  2  0  0  0
 20 22  1  0  0  0
 22 62  1  0  0  0
 22 26  1  0  0  0
 22 23  1  0  0  0
 23 24  1  0  0  0
 23 88  1  0  0  0
 23 89  1  0  0  0
 24 25  1  0  0  0
 24 90  1  0  0  0
 24 91  1  0  0  0
 25 26  1  0  0  0
 25 92  1  0  0  0
 25 93  1  0  0  0
 26 27  1  0  0  0
 27 28  2  0  0  0
 27 29  1  0  0  0
 29 63  1  0  0  0
 29 30  1  0  0  0
 29 34  1  0  0  0
 30 64  1  0  0  0
 30 31  1  0  0  0
 30 32  1  0  0  0
 31 94  1  0  0  0
 31 95  1  0  0  0
 31 96  1  0  0  0
 32 33  1  0  0  0
 32 97  1  0  0  0
 32 98  1  0  0  0
 33 99  1  0  0  0
 33100  1  0  0  0
 33101  1  0  0  0
 34 35  1  0  0  0
 35 36  2  0  0  0
 35 37  1  0  0  0
 37 65  1  0  0  0
 37 38  1  0  0  0
 37 45  1  0  0  0
 38 39  1  0  0  0
 38102  1  0  0  0
 38103  1  0  0  0
 39 44  1  0  0  0
 39 40  2  0  0  0
 40 41  1  0  0  0
 40104  1  0  0  0
 41 42  2  0  0  0
 41105  1  0  0  0
 42 43  1  0  0  0
 42106  1  0  0  0
 43 44  2  0  0  0
 43107  1  0  0  0
 44108  1  0  0  0
 45 46  1  0  0  0
 45 47  1  0  0  0
 46109  1  0  0  0
 46110  1  0  0  0
 46111  1  0  0  0
 47 48  2  0  0  0
 47 49  1  0  0  0
 49 66  1  0  0  0
 49 50  1  0  0  0
 49 53  1  0  0  0
 50 51  1  0  0  0
 50 52  1  0  0  0
 50112  1  0  0  0
 51113  1  0  0  0
 51114  1  0  0  0
 51115  1  0  0  0
 52116  1  0  0  0
 52117  1  0  0  0
 52118  1  0  0  0
 53 54  1  0  0  0
 53119  1  0  0  0
 54 55  2  0  0  0
 54 56  1  0  0  0
 56 57  1  0  0  0
 56 58  1  0  0  0
 57120  1  0  0  0
 57121  1  0  0  0
 57122  1  0  0  0
 58123  1  0  0  0
 58124  1  0  0  0
 58125  1  0  0  0
M  END
$$$$
216
                    3D
 Schrodinger Suite 2021-2.
136144  0  0  1  0            999 V2000
   -8.2231    4.3523   -7.0730 C   0  0  0  0  0  0
   -8.2087    4.6964   -5.9012 C   0  0  0  0  0  0
   -8.1902    5.1273   -4.4829 C   0  0  2  0  0  0
   -8.9761    4.2183   -3.7349 O   0  0  0  0  0  0
   -8.8038    6.5501   -4.3621 C   0  0  0  0  0  0
   -7.6262    7.5477   -4.3138 C   0  0  0  0  0  0
   -6.3716    6.6826   -4.4847 C   0  0  1  0  0  0
   -5.0072    7.2018   -3.9924 C   0  0  2  0  0  0
   -4.6862    8.6496   -4.4243 C   0  0  0  0  0  0
   -4.0126    8.7061   -5.7895 C   0  0  0  0  0  0
   -2.7682    7.8440   -5.7647 C   0  0  0  0  0  0
   -1.6415    8.2846   -6.3672 C   0  0  0  0  0  0
   -0.4037    7.4884   -6.4067 C   0  0  0  0  0  0
    0.5838    7.8261   -7.0559 O   0  0  0  0  0  0
   -0.3534    6.2084   -5.5740 C   0  0  0  0  0  0
   -1.7270    5.5237   -5.4955 C   0  0  0  0  0  0
   -2.8445    6.5123   -5.1608 C   0  0  0  0  0  0
   -3.9205    6.1799   -4.3954 C   0  0  0  0  0  0
   -4.2078    4.7397   -3.9213 C   0  0  1  0  0  0
   -3.7257    4.3970   -2.5078 C   0  0  0  0  0  0
   -3.7984    3.0631   -2.0577 C   0  0  0  0  0  0
   -3.3475    2.7087   -0.7729 C   0  0  0  0  0  0
   -2.7969    3.6754    0.1034 C   0  0  0  0  0  0
   -2.3260    3.3050    1.3872 N   0  0  0  0  0  0
   -1.9464    4.3575    2.3230 C   0  0  0  0  0  0
   -1.6655    2.0084    1.5348 C   0  0  0  0  0  0
   -0.2900    1.9727    0.8477 C   0  0  0  0  0  0
    0.3546    0.5763    0.9055 C   0  0  0  0  0  0
    1.7865    0.4775    0.3123 C   0  0  1  0  0  0
    2.6279    1.2642    1.1341 O   0  0  0  0  0  0
    2.3381   -0.9611    0.3631 C   0  0  0  0  0  0
    1.6394   -1.8844   -0.6505 C   0  0  0  0  0  0
    1.6981   -1.3952   -2.1294 C   0  0  2  0  0  0
    0.6897   -2.2875   -2.9025 C   0  0  0  0  0  0
    3.1414   -1.4960   -2.7492 C   0  0  1  0  0  0
    3.7773   -2.9162   -2.6687 C   0  0  0  0  0  0
    5.1745   -3.0357   -3.3245 C   0  0  2  0  0  0
    6.1128   -2.3591   -2.5082 O   0  0  0  0  0  0
    5.1740   -2.5142   -4.7921 C   0  0  1  0  0  0
    4.3092   -3.4574   -5.6803 C   0  0  0  0  0  0
    4.6379   -1.0660   -4.7625 C   0  0  1  0  0  0
    4.9315   -0.5171   -6.1564 C   0  0  0  0  0  0
    6.2537   -1.1946   -6.5452 C   0  0  0  0  0  0
    6.5611   -2.2774   -5.4750 C   0  0  2  0  0  0
    7.3525   -3.4947   -6.0517 C   0  0  2  0  0  0
    7.6012   -4.5959   -5.0016 C   0  0  0  0  0  0
    8.7018   -3.0382   -6.6658 C   0  0  0  0  0  0
    9.3987   -4.1042   -7.5423 C   0  0  0  0  0  0
   10.5852   -3.5416   -8.3359 C   0  0  0  0  0  0
   10.9561   -4.2072   -9.3273 O   0  0  0  0  0  0
   11.1153   -2.4776   -7.9451 O   0  5  0  0  0  0
    3.2029   -0.9239   -4.2017 C   0  0  2  0  0  0
    2.6696    0.5286   -4.2838 C   0  0  2  0  0  0
    3.5892    1.4640   -3.7538 O   0  0  0  0  0  0
    1.2962    0.6898   -3.6035 C   0  0  0  0  0  0
    1.2152    0.0916   -2.1786 C   0  0  2  0  0  0
    1.9197    0.9965   -1.1338 C   0  0  0  0  0  0
   -2.7249    5.0140   -0.3563 C   0  0  0  0  0  0
   -3.1743    5.3685   -1.6426 C   0  0  0  0  0  0
   -5.6671    4.2954   -4.2472 C   0  0  0  0  0  0
   -6.7619    5.3249   -3.8610 C   0  0  2  0  0  0
   -6.8783    5.3736   -2.3040 C   0  0  0  0  0  0
   -6.2527    6.5486   -5.5618 H   0  0  0  0  0  0
   -5.0324    7.2440   -2.9062 H   0  0  0  0  0  0
   -3.6206    4.0660   -4.5412 H   0  0  0  0  0  0
    3.7947   -0.8632   -2.1500 H   0  0  0  0  0  0
    5.4538   -4.0860   -3.2947 H   0  0  0  0  0  0
    5.2842   -0.4940   -4.0940 H   0  0  0  0  0  0
    7.2142   -1.8006   -4.7428 H   0  0  0  0  0  0
    6.7632   -3.9320   -6.8581 H   0  0  0  0  0  0
    2.5492   -1.5152   -4.8382 H   0  0  0  0  0  0
    2.5522    0.7950   -5.3348 H   0  0  0  0  0  0
    0.1576    0.1037   -1.9126 H   0  0  0  0  0  0
   -8.2326    4.0491   -8.0958 H   0  0  0  0  0  0
   -9.5505    3.7607   -4.3296 H   0  0  0  0  0  0
   -9.4968    6.7858   -5.1720 H   0  0  0  0  0  0
   -9.3805    6.6473   -3.4407 H   0  0  0  0  0  0
   -7.7033    8.3026   -5.0969 H   0  0  0  0  0  0
   -7.6104    8.0672   -3.3550 H   0  0  0  0  0  0
   -5.5739    9.2808   -4.4079 H   0  0  0  0  0  0
   -4.0047    9.0877   -3.6932 H   0  0  0  0  0  0
   -4.6863    8.3410   -6.5655 H   0  0  0  0  0  0
   -3.7640    9.7382   -6.0397 H   0  0  0  0  0  0
   -1.6205    9.2547   -6.8424 H   0  0  0  0  0  0
    0.3869    5.5250   -5.9908 H   0  0  0  0  0  0
   -0.0149    6.4728   -4.5718 H   0  0  0  0  0  0
   -1.9632    5.0269   -6.4371 H   0  0  0  0  0  0
   -1.6394    4.7508   -4.7337 H   0  0  0  0  0  0
   -4.1998    2.2938   -2.7002 H   0  0  0  0  0  0
   -3.4435    1.6753   -0.4802 H   0  0  0  0  0  0
   -2.7458    5.0919    2.4279 H   0  0  0  0  0  0
   -1.7525    3.9426    3.3123 H   0  0  0  0  0  0
   -1.0415    4.8658    1.9887 H   0  0  0  0  0  0
   -1.5366    1.8036    2.5982 H   0  0  0  0  0  0
   -2.2995    1.2020    1.1708 H   0  0  0  0  0  0
   -0.4088    2.2696   -0.1938 H   0  0  0  0  0  0
    0.3649    2.7115    1.3103 H   0  0  0  0  0  0
    0.3779    0.2414    1.9437 H   0  0  0  0  0  0
   -0.3140   -0.1141    0.3936 H   0  0  0  0  0  0
    2.3257    2.1591    1.1032 H   0  0  0  0  0  0
    3.4100   -0.9583    0.1601 H   0  0  0  0  0  0
    2.2274   -1.3703    1.3682 H   0  0  0  0  0  0
    2.0340   -2.8940   -0.5532 H   0  0  0  0  0  0
    0.5970   -1.9869   -0.3497 H   0  0  0  0  0  0
    0.6389   -2.0661   -3.9664 H   0  0  0  0  0  0
    0.9268   -3.3463   -2.8050 H   0  0  0  0  0  0
   -0.3219   -2.1617   -2.5149 H   0  0  0  0  0  0
    3.8740   -3.2303   -1.6304 H   0  0  0  0  0  0
    3.1150   -3.6466   -3.1288 H   0  0  0  0  0  0
    5.8992   -1.4385   -2.5076 H   0  0  0  0  0  0
    4.2949   -3.1492   -6.7251 H   0  0  0  0  0  0
    4.6889   -4.4779   -5.6616 H   0  0  0  0  0  0
    3.2715   -3.5172   -5.3594 H   0  0  0  0  0  0
    4.1406   -0.7909   -6.8556 H   0  0  0  0  0  0
    5.0139    0.5702   -6.1612 H   0  0  0  0  0  0
    6.1564   -1.6325   -7.5395 H   0  0  0  0  0  0
    7.0619   -0.4640   -6.5942 H   0  0  0  0  0  0
    8.0517   -4.1879   -4.0965 H   0  0  0  0  0  0
    6.6821   -5.1065   -4.7271 H   0  0  0  0  0  0
    8.2624   -5.3763   -5.3737 H   0  0  0  0  0  0
    8.5403   -2.1603   -7.2903 H   0  0  0  0  0  0
    9.3728   -2.7160   -5.8681 H   0  0  0  0  0  0
    9.7679   -4.9298   -6.9353 H   0  0  0  0  0  0
    8.6836   -4.5244   -8.2503 H   0  0  0  0  0  0
    3.2425    2.3335   -3.8844 H   0  0  0  0  0  0
    1.0064    1.7413   -3.5876 H   0  0  0  0  0  0
    0.5478    0.2040   -4.2293 H   0  0  0  0  0  0
    1.5518    2.0188   -1.2140 H   0  0  0  0  0  0
    2.9819    1.0668   -1.3589 H   0  0  0  0  0  0
   -2.3085    5.7976    0.2580 H   0  0  0  0  0  0
   -3.0813    6.3995   -1.9469 H   0  0  0  0  0  0
   -5.6867    4.1479   -5.3263 H   0  0  0  0  0  0
   -5.8976    3.3157   -3.8297 H   0  0  0  0  0  0
   -5.9585    5.6628   -1.8052 H   0  0  0  0  0  0
   -7.6421    6.0683   -1.9570 H   0  0  0  0  0  0
   -7.1362    4.3936   -1.9015 H   0  0  0  0  0  0
  1  2  3  0  0  0
  1 74  1  0  0  0
  2  3  1  0  0  0
  3 61  1  0  0  0
  3  4  1  0  0  0
  3  5  1  0  0  0
  4 75  1  0  0  0
  5  6  1  0  0  0
  5 76  1  0  0  0
  5 77  1  0  0  0
  6  7  1  0  0  0
  6 78  1  0  0  0
  6 79  1  0  0  0
  7 63  1  0  0  0
  7 61  1  0  0  0
  7  8  1  0  0  0
  8 64  1  0  0  0
  8 18  1  0  0  0
  8  9  1  0  0  0
  9 10  1  0  0  0
  9 80  1  0  0  0
  9 81  1  0  0  0
 10 11  1  0  0  0
 10 82  1  0  0  0
 10 83  1  0  0  0
 11 17  1  0  0  0
 11 12  2  0  0  0
 12 13  1  0  0  0
 12 84  1  0  0  0
 13 14  2  0  0  0
 13 15  1  0  0  0
 15 16  1  0  0  0
 15 85  1  0  0  0
 15 86  1  0  0  0
 16 17  1  0  0  0
 16 87  1  0  0  0
 16 88  1  0  0  0
 17 18  2  0  0  0
 18 19  1  0  0  0
 19 65  1  0  0  0
 19 20  1  0  0  0
 19 60  1  0  0  0
 20 59  1  0  0  0
 20 21  2  0  0  0
 21 22  1  0  0  0
 21 89  1  0  0  0
 22 23  2  0  0  0
 22 90  1  0  0  0
 23 24  1  0  0  0
 23 58  1  0  0  0
 24 25  1  0  0  0
 24 26  1  0  0  0
 25 91  1  0  0  0
 25 92  1  0  0  0
 25 93  1  0  0  0
 26 27  1  0  0  0
 26 94  1  0  0  0
 26 95  1  0  0  0
 27 28  1  0  0  0
 27 96  1  0  0  0
 27 97  1  0  0  0
 28 29  1  0  0  0
 28 98  1  0  0  0
 28 99  1  0  0  0
 29 57  1  0  0  0
 29 30  1  0  0  0
 29 31  1  0  0  0
 30100  1  0  0  0
 31 32  1  0  0  0
 31101  1  0  0  0
 31102  1  0  0  0
 32 33  1  0  0  0
 32103  1  0  0  0
 32104  1  0  0  0
 33 56  1  0  0  0
 33 34  1  0  0  0
 33 35  1  0  0  0
 34105  1  0  0  0
 34106  1  0  0  0
 34107  1  0  0  0
 35 66  1  0  0  0
 35 52  1  0  0  0
 35 36  1  0  0  0
 36 37  1  0  0  0
 36108  1  0  0  0
 36109  1  0  0  0
 37 67  1  0  0  0
 37 38  1  0  0  0
 37 39  1  0  0  0
 38110  1  0  0  0
 39 44  1  0  0  0
 39 40  1  0  0  0
 39 41  1  0  0  0
 40111  1  0  0  0
 40112  1  0  0  0
 40113  1  0  0  0
 41 68  1  0  0  0
 41 42  1  0  0  0
 41 52  1  0  0  0
 42 43  1  0  0  0
 42114  1  0  0  0
 42115  1  0  0  0
 43 44  1  0  0  0
 43116  1  0  0  0
 43117  1  0  0  0
 44 69  1  0  0  0
 44 45  1  0  0  0
 45 70  1  0  0  0
 45 46  1  0  0  0
 45 47  1  0  0  0
 46118  1  0  0  0
 46119  1  0  0  0
 46120  1  0  0  0
 47 48  1  0  0  0
 47121  1  0  0  0
 47122  1  0  0  0
 48 49  1  0  0  0
 48123  1  0  0  0
 48124  1  0  0  0
 49 50  2  0  0  0
 49 51  1  0  0  0
 52 71  1  0  0  0
 52 53  1  0  0  0
 53 72  1  0  0  0
 53 54  1  0  0  0
 53 55  1  0  0  0
 54125  1  0  0  0
 55 56  1  0  0  0
 55126  1  0  0  0
 55127  1  0  0  0
 56 73  1  0  0  0
 56 57  1  0  0  0
 57128  1  0  0  0
 57129  1  0  0  0
 58 59  2  0  0  0
 58130  1  0  0  0
 59131  1  0  0  0
 60 61  1  0  0  0
 60132  1  0  0  0
 60133  1  0  0  0
 61 62  1  0  0  0
 62134  1  0  0  0
 62135  1  0  0  0
 62136  1  0  0  0
M  CHG  1  51  -1
M  END
$$$$
217
                    3D
 Schrodinger Suite 2021-2.
 72 75  0  0  1  0            999 V2000
    0.3896   -4.3857    1.6199 C   0  0  0  0  0  0
   -1.0409   -4.3409    2.1778 C   0  0  0  0  0  0
   -1.7852   -3.1519    1.6872 N   0  3  0  0  0  0
   -2.8195   -2.6712    2.6392 C   0  0  0  0  0  0
   -2.2155   -1.9139    3.8317 C   0  0  0  0  0  0
   -2.3261   -3.3392    0.3120 C   0  0  0  0  0  0
   -2.3178   -2.0380   -0.5161 C   0  0  0  0  0  0
   -0.9731   -1.4788   -0.6124 N   0  0  0  0  0  0
   -0.4633   -0.5505    0.2120 C   0  0  0  0  0  0
   -1.1215    0.0361    1.0710 O   0  0  0  0  0  0
    1.0193   -0.3419    0.0791 C   0  0  0  0  0  0
    1.5456   -0.0572   -1.1989 C   0  0  0  0  0  0
    2.9218    0.1439   -1.3725 C   0  0  0  0  0  0
    3.6904    0.5732   -3.2683 I   0  0  0  0  0  0
    3.7842    0.0489   -0.2711 C   0  0  0  0  0  0
    3.2845   -0.2592    1.0173 C   0  0  0  0  0  0
    4.1571   -0.4037    2.1329 C   0  0  0  0  0  0
    5.5532   -0.2972    2.0003 N   0  0  0  0  0  0
    6.4228   -1.1052    1.2457 C   0  0  0  0  0  0
    7.7367   -0.6229    1.0761 C   0  0  0  0  0  0
    8.6810   -1.3441    0.3263 C   0  0  0  0  0  0
    8.3222   -2.5717   -0.2624 C   0  0  0  0  0  0
    9.2339   -3.3143   -1.0192 N   0  0  0  0  0  0
   10.8724   -2.9190   -1.4261 S   0  0  0  0  0  0
   11.3706   -4.3323   -2.4906 C   0  0  0  0  0  0
   10.8108   -1.6933   -2.2367 O   0  0  0  0  0  0
   11.6305   -2.9623   -0.1666 O   0  0  0  0  0  0
    7.0174   -3.0701   -0.0835 C   0  0  0  0  0  0
    6.0525   -2.3549    0.6729 C   0  0  0  0  0  0
    4.7771   -2.8385    0.8895 O   0  0  0  0  0  0
    4.3619   -4.0142    0.2111 C   0  0  0  0  0  0
    3.5969   -0.6635    3.4093 C   0  0  0  0  0  0
    4.4032   -0.7926    4.5678 C   0  0  0  0  0  0
    3.8207   -1.0619    5.8191 C   0  0  0  0  0  0
    2.4278   -1.2079    5.9246 C   0  0  0  0  0  0
    1.6235   -1.0853    4.7775 C   0  0  0  0  0  0
    2.1897   -0.8143    3.5136 C   0  0  0  0  0  0
    1.3858   -0.7133    2.4378 N   0  0  0  0  0  0
    1.8833   -0.4356    1.2094 C   0  0  0  0  0  0
   -1.1049   -2.4075    1.6203 H   0  0  0  0  0  0
    0.9285   -5.2488    2.0109 H   0  0  0  0  0  0
    0.4048   -4.4561    0.5324 H   0  0  0  0  0  0
    0.9494   -3.4942    1.9028 H   0  0  0  0  0  0
   -1.5851   -5.2524    1.9264 H   0  0  0  0  0  0
   -0.9694   -4.3251    3.2646 H   0  0  0  0  0  0
   -3.4945   -1.9867    2.1241 H   0  0  0  0  0  0
   -3.4310   -3.5078    2.9804 H   0  0  0  0  0  0
   -3.0044   -1.5083    4.4653 H   0  0  0  0  0  0
   -1.5967   -2.5544    4.4590 H   0  0  0  0  0  0
   -1.6001   -1.0779    3.4994 H   0  0  0  0  0  0
   -1.7278   -4.0747   -0.2268 H   0  0  0  0  0  0
   -3.3320   -3.7591    0.3596 H   0  0  0  0  0  0
   -2.6691   -2.2480   -1.5266 H   0  0  0  0  0  0
   -3.0146   -1.3085   -0.1008 H   0  0  0  0  0  0
   -0.3531   -1.8971   -1.2914 H   0  0  0  0  0  0
    0.8917    0.0178   -2.0559 H   0  0  0  0  0  0
    4.8373    0.2109   -0.4416 H   0  0  0  0  0  0
    6.0082    0.2807    2.6922 H   0  0  0  0  0  0
    8.0274    0.3201    1.5161 H   0  0  0  0  0  0
    9.6766   -0.9425    0.2099 H   0  0  0  0  0  0
    8.8804   -4.1844   -1.3893 H   0  0  0  0  0  0
   12.4008   -4.1928   -2.8176 H   0  0  0  0  0  0
   11.2939   -5.2608   -1.9253 H   0  0  0  0  0  0
   10.7185   -4.3805   -3.3624 H   0  0  0  0  0  0
    6.7784   -4.0207   -0.5355 H   0  0  0  0  0  0
    3.3125   -4.2035    0.4368 H   0  0  0  0  0  0
    4.4503   -3.9042   -0.8706 H   0  0  0  0  0  0
    4.9318   -4.8851    0.5372 H   0  0  0  0  0  0
    5.4770   -0.6889    4.5181 H   0  0  0  0  0  0
    4.4429   -1.1568    6.6968 H   0  0  0  0  0  0
    1.9765   -1.4145    6.8836 H   0  0  0  0  0  0
    0.5539   -1.2013    4.8721 H   0  0  0  0  0  0
  1  2  1  0  0  0
  1 41  1  0  0  0
  1 42  1  0  0  0
  1 43  1  0  0  0
  2  3  1  0  0  0
  2 44  1  0  0  0
  2 45  1  0  0  0
  3 40  1  0  0  0
  3  4  1  0  0  0
  3  6  1  0  0  0
  4  5  1  0  0  0
  4 46  1  0  0  0
  4 47  1  0  0  0
  5 48  1  0  0  0
  5 49  1  0  0  0
  5 50  1  0  0  0
  6  7  1  0  0  0
  6 51  1  0  0  0
  6 52  1  0  0  0
  7  8  1  0  0  0
  7 53  1  0  0  0
  7 54  1  0  0  0
  8  9  1  0  0  0
  8 55  1  0  0  0
  9 10  2  0  0  0
  9 11  1  0  0  0
 11 39  1  0  0  0
 11 12  2  0  0  0
 12 13  1  0  0  0
 12 56  1  0  0  0
 13 14  1  0  0  0
 13 15  2  0  0  0
 15 16  1  0  0  0
 15 57  1  0  0  0
 16 39  2  0  0  0
 16 17  1  0  0  0
 17 18  1  0  0  0
 17 32  2  0  0  0
 18 19  1  0  0  0
 18 58  1  0  0  0
 19 29  1  0  0  0
 19 20  2  0  0  0
 20 21  1  0  0  0
 20 59  1  0  0  0
 21 22  2  0  0  0
 21 60  1  0  0  0
 22 23  1  0  0  0
 22 28  1  0  0  0
 23 24  1  0  0  0
 23 61  1  0  0  0
 24 25  1  0  0  0
 24 26  2  0  0  0
 24 27  2  0  0  0
 25 62  1  0  0  0
 25 63  1  0  0  0
 25 64  1  0  0  0
 28 29  2  0  0  0
 28 65  1  0  0  0
 29 30  1  0  0  0
 30 31  1  0  0  0
 31 66  1  0  0  0
 31 67  1  0  0  0
 31 68  1  0  0  0
 32 37  1  0  0  0
 32 33  1  0  0  0
 33 34  2  0  0  0
 33 69  1  0  0  0
 34 35  1  0  0  0
 34 70  1  0  0  0
 35 36  2  0  0  0
 35 71  1  0  0  0
 36 37  1  0  0  0
 36 72  1  0  0  0
 37 38  2  0  0  0
 38 39  1  0  0  0
M  CHG  1   3   1
M  END
$$$$
218
                    3D
 Schrodinger Suite 2021-2.
120124  0  0  1  0            999 V2000
   -6.9242    3.4175   -2.2028 C   0  0  0  0  0  0
   -6.3127    2.2011   -1.4986 C   0  0  0  0  0  0
   -4.7789    2.2553   -1.4563 C   0  0  0  0  0  0
   -4.1697    1.0438   -0.7263 C   0  0  0  0  0  0
   -2.6237    1.0130   -0.6828 C   0  0  1  0  0  0
   -2.0785    0.9825   -2.0405 N   0  0  0  0  0  0
   -1.8805   -0.1806   -2.7647 C   0  0  0  0  0  0
   -2.1398   -1.3241   -2.3892 O   0  0  0  0  0  0
   -1.3373    0.1572   -3.9575 O   0  0  0  0  0  0
   -0.9585   -0.7844   -4.9713 C   0  0  0  0  0  0
   -2.1757   -1.5821   -5.4882 C   0  0  0  0  0  0
    0.1689   -1.7178   -4.4792 C   0  0  0  0  0  0
   -0.4159    0.0921   -6.1135 C   0  0  0  0  0  0
   -2.0023    2.1640    0.1526 C   0  0  1  0  0  0
   -2.4132    2.0472    1.5000 O   0  0  0  0  0  0
   -0.4691    2.1908    0.1138 C   0  0  0  0  0  0
    0.1317    3.1987   -0.2592 O   0  0  0  0  0  0
    0.1015    1.0395    0.5413 O   0  0  0  0  0  0
    1.5203    0.9248    0.6408 C   0  0  1  0  0  0
    1.9391    1.2286    2.1135 C   0  0  0  0  0  0
    2.7986    0.1120    2.7812 C   0  0  1  0  0  0
    3.3727    0.7363    3.9199 O   0  0  0  0  0  0
    1.8834   -1.0815    3.3218 C   0  0  1  0  0  0
    0.6202   -1.1911    2.6280 O   0  0  0  0  0  0
   -0.5566   -0.7742    3.1900 C   0  0  0  0  0  0
   -0.6211   -0.0668    4.1970 O   0  0  0  0  0  0
   -1.7716   -1.2556    2.4714 C   0  0  0  0  0  0
   -3.0478   -0.8365    2.9157 C   0  0  0  0  0  0
   -4.2162   -1.2733    2.2622 C   0  0  0  0  0  0
   -4.1248   -2.1407    1.1586 C   0  0  0  0  0  0
   -2.8629   -2.5737    0.7133 C   0  0  0  0  0  0
   -1.6954   -2.1345    1.3664 C   0  0  0  0  0  0
    2.3279   -2.5657    3.7496 C   0  0  2  0  0  0
    2.4706   -2.7567    5.2932 C   0  0  2  0  0  0
    1.3834   -2.1774    6.0358 O   0  0  0  0  0  0
    0.1426   -2.7239    6.0921 C   0  0  0  0  0  0
   -0.8056   -1.9196    6.9711 C   0  0  0  0  0  0
   -0.2313   -3.7457    5.5165 O   0  0  0  0  0  0
    3.7555   -2.3560    6.0226 C   0  0  0  0  0  0
    4.1072   -3.7376    6.2721 O   0  0  0  0  0  0
    2.7909   -4.1612    5.8406 C   0  0  2  0  0  0
    2.8546   -5.3624    4.8923 C   0  0  0  0  0  0
    2.4599   -5.0514    3.4233 C   0  0  2  0  0  0
    2.7789   -6.2037    2.6595 O   0  0  0  0  0  0
    3.0711   -3.6990    2.8585 C   0  0  2  0  0  0
    4.6088   -3.9310    3.0588 C   0  0  0  0  0  0
    2.8090   -3.6065    1.3024 C   0  0  1  0  0  0
    1.4255   -3.6617    1.0311 O   0  0  0  0  0  0
    3.4520   -2.5163    0.3734 C   0  0  2  0  0  0
    4.8277   -2.7480    0.0877 O   0  0  0  0  0  0
    5.3910   -2.3010   -1.0531 C   0  0  0  0  0  0
    6.8706   -2.6486   -1.1397 C   0  0  0  0  0  0
    4.8242   -1.6736   -1.9480 O   0  0  0  0  0  0
    3.1040   -1.0521    0.6847 C   0  0  0  0  0  0
    2.0450   -0.4193    0.0990 C   0  0  0  0  0  0
    1.2019   -0.9818   -1.0404 C   0  0  0  0  0  0
    3.8972   -0.2681    1.7543 C   0  0  0  0  0  0
    4.6157    0.9339    1.0593 C   0  0  0  0  0  0
    5.0889   -0.9137    2.4899 C   0  0  0  0  0  0
   -2.3381    0.0819   -0.1946 H   0  0  0  0  0  0
   -2.3563    3.1224   -0.2266 H   0  0  0  0  0  0
    1.9632    1.6746   -0.0142 H   0  0  0  0  0  0
    1.6048   -0.6574    4.2822 H   0  0  0  0  0  0
    1.3335   -2.9815    3.6333 H   0  0  0  0  0  0
    2.2065   -4.4023    6.7305 H   0  0  0  0  0  0
    1.3704   -5.0226    3.3794 H   0  0  0  0  0  0
    3.1846   -4.5329    0.8686 H   0  0  0  0  0  0
    2.9936   -2.7516   -0.5811 H   0  0  0  0  0  0
   -8.0119    3.3464   -2.2274 H   0  0  0  0  0  0
   -6.6629    4.3426   -1.6883 H   0  0  0  0  0  0
   -6.5722    3.4950   -3.2319 H   0  0  0  0  0  0
   -6.7057    2.1395   -0.4833 H   0  0  0  0  0  0
   -6.6327    1.2922   -2.0092 H   0  0  0  0  0  0
   -4.3966    2.3078   -2.4762 H   0  0  0  0  0  0
   -4.4705    3.1765   -0.9623 H   0  0  0  0  0  0
   -4.5622    1.0039    0.2902 H   0  0  0  0  0  0
   -4.5223    0.1301   -1.2067 H   0  0  0  0  0  0
   -1.8117    1.8484   -2.4861 H   0  0  0  0  0  0
   -2.9809   -0.9156   -5.7986 H   0  0  0  0  0  0
   -1.9044   -2.1931   -6.3495 H   0  0  0  0  0  0
   -2.5787   -2.2594   -4.7359 H   0  0  0  0  0  0
    1.0201   -1.1463   -4.1079 H   0  0  0  0  0  0
   -0.1595   -2.3799   -3.6783 H   0  0  0  0  0  0
    0.5303   -2.3530   -5.2884 H   0  0  0  0  0  0
    0.4347    0.6907   -5.7850 H   0  0  0  0  0  0
   -0.0842   -0.5143   -6.9571 H   0  0  0  0  0  0
   -1.1775    0.7803   -6.4823 H   0  0  0  0  0  0
   -2.1320    2.8196    1.9662 H   0  0  0  0  0  0
    2.4928    2.1685    2.1021 H   0  0  0  0  0  0
    1.0724    1.4616    2.7312 H   0  0  0  0  0  0
    3.8819    1.4779    3.6307 H   0  0  0  0  0  0
   -3.1455   -0.1686    3.7594 H   0  0  0  0  0  0
   -5.1834   -0.9388    2.6070 H   0  0  0  0  0  0
   -5.0199   -2.4720    0.6535 H   0  0  0  0  0  0
   -2.7881   -3.2376   -0.1354 H   0  0  0  0  0  0
   -0.7472   -2.4823    0.9987 H   0  0  0  0  0  0
   -0.5470   -0.8606    6.9469 H   0  0  0  0  0  0
   -1.8325   -2.0306    6.6226 H   0  0  0  0  0  0
   -0.7500   -2.2671    8.0027 H   0  0  0  0  0  0
    4.4898   -1.8375    5.4114 H   0  0  0  0  0  0
    3.5915   -1.8103    6.9535 H   0  0  0  0  0  0
    3.8535   -5.7992    4.9312 H   0  0  0  0  0  0
    2.1960   -6.1493    5.2621 H   0  0  0  0  0  0
    2.4499   -6.0869    1.7816 H   0  0  0  0  0  0
    4.9005   -4.9705    2.9159 H   0  0  0  0  0  0
    5.2374   -3.4290    2.3409 H   0  0  0  0  0  0
    4.9763   -3.6577    4.0403 H   0  0  0  0  0  0
    1.0655   -4.4323    1.4425 H   0  0  0  0  0  0
    7.0069   -3.7303   -1.1318 H   0  0  0  0  0  0
    7.3044   -2.2518   -2.0577 H   0  0  0  0  0  0
    7.4081   -2.2248   -0.2914 H   0  0  0  0  0  0
    0.9497   -0.1746   -1.7280 H   0  0  0  0  0  0
    1.6975   -1.7354   -1.6459 H   0  0  0  0  0  0
    0.2700   -1.3986   -0.6648 H   0  0  0  0  0  0
    5.0073    1.6456    1.7874 H   0  0  0  0  0  0
    5.4631    0.5842    0.4675 H   0  0  0  0  0  0
    4.0088    1.5064    0.3648 H   0  0  0  0  0  0
    5.6834   -0.1592    3.0072 H   0  0  0  0  0  0
    4.7608   -1.5449    3.2947 H   0  0  0  0  0  0
    5.8018   -1.4151    1.8417 H   0  0  0  0  0  0
  1  2  1  0  0  0
  1 69  1  0  0  0
  1 70  1  0  0  0
  1 71  1  0  0  0
  2  3  1  0  0  0
  2 72  1  0  0  0
  2 73  1  0  0  0
  3  4  1  0  0  0
  3 74  1  0  0  0
  3 75  1  0  0  0
  4  5  1  0  0  0
  4 76  1  0  0  0
  4 77  1  0  0  0
  5 60  1  0  0  0
  5  6  1  0  0  0
  5 14  1  0  0  0
  6  7  1  0  0  0
  6 78  1  0  0  0
  7  8  2  0  0  0
  7  9  1  0  0  0
  9 10  1  0  0  0
 10 11  1  0  0  0
 10 12  1  0  0  0
 10 13  1  0  0  0
 11 79  1  0  0  0
 11 80  1  0  0  0
 11 81  1  0  0  0
 12 82  1  0  0  0
 12 83  1  0  0  0
 12 84  1  0  0  0
 13 85  1  0  0  0
 13 86  1  0  0  0
 13 87  1  0  0  0
 14 61  1  0  0  0
 14 15  1  0  0  0
 14 16  1  0  0  0
 15 88  1  0  0  0
 16 17  2  0  0  0
 16 18  1  0  0  0
 18 19  1  0  0  0
 19 62  1  0  0  0
 19 55  1  0  0  0
 19 20  1  0  0  0
 20 21  1  0  0  0
 20 89  1  0  0  0
 20 90  1  0  0  0
 21 57  1  0  0  0
 21 22  1  0  0  0
 21 23  1  0  0  0
 22 91  1  0  0  0
 23 63  1  0  0  0
 23 24  1  0  0  0
 23 33  1  0  0  0
 24 25  1  0  0  0
 25 26  2  0  0  0
 25 27  1  0  0  0
 27 32  1  0  0  0
 27 28  2  0  0  0
 28 29  1  0  0  0
 28 92  1  0  0  0
 29 30  2  0  0  0
 29 93  1  0  0  0
 30 31  1  0  0  0
 30 94  1  0  0  0
 31 32  2  0  0  0
 31 95  1  0  0  0
 32 96  1  0  0  0
 33 64  1  0  0  0
 33 45  1  0  0  0
 33 34  1  0  0  0
 34 41  1  0  0  0
 34 35  1  0  0  0
 34 39  1  0  0  0
 35 36  1  0  0  0
 36 37  1  0  0  0
 36 38  2  0  0  0
 37 97  1  0  0  0
 37 98  1  0  0  0
 37 99  1  0  0  0
 39 40  1  0  0  0
 39100  1  0  0  0
 39101  1  0  0  0
 40 41  1  0  0  0
 41 65  1  0  0  0
 41 42  1  0  0  0
 42 43  1  0  0  0
 42102  1  0  0  0
 42103  1  0  0  0
 43 66  1  0  0  0
 43 44  1  0  0  0
 43 45  1  0  0  0
 44104  1  0  0  0
 45 46  1  0  0  0
 45 47  1  0  0  0
 46105  1  0  0  0
 46106  1  0  0  0
 46107  1  0  0  0
 47 67  1  0  0  0
 47 48  1  0  0  0
 47 49  1  0  0  0
 48108  1  0  0  0
 49 68  1  0  0  0
 49 50  1  0  0  0
 49 54  1  0  0  0
 50 51  1  0  0  0
 51 52  1  0  0  0
 51 53  2  0  0  0
 52109  1  0  0  0
 52110  1  0  0  0
 52111  1  0  0  0
 54 55  2  0  0  0
 54 57  1  0  0  0
 55 56  1  0  0  0
 56112  1  0  0  0
 56113  1  0  0  0
 56114  1  0  0  0
 57 58  1  0  0  0
 57 59  1  0  0  0
 58115  1  0  0  0
 58116  1  0  0  0
 58117  1  0  0  0
 59118  1  0  0  0
 59119  1  0  0  0
 59120  1  0  0  0
M  END
$$$$
219
                    3D
 Schrodinger Suite 2021-2.
115120  0  0  1  0            999 V2000
    2.9194    1.0056   -2.9776 C   0  0  0  0  0  0
    1.6738    1.8038   -2.6213 C   0  0  0  0  0  0
    1.5311    2.3135   -1.5105 O   0  0  0  0  0  0
    0.7868    1.8617   -3.6405 O   0  0  0  0  0  0
   -0.4770    2.5353   -3.5131 C   0  0  1  0  0  0
   -0.1887    4.0668   -3.5333 C   0  0  0  0  0  0
   -0.1558    4.0273   -4.9830 O   0  0  0  0  0  0
   -1.0345    2.8926   -4.8811 C   0  0  1  0  0  0
   -1.0214    1.7865   -5.8875 C   0  0  0  0  0  0
   -1.3364    0.4654   -5.1418 C   0  0  2  0  0  0
   -1.9248   -0.3915   -6.1126 O   0  0  0  0  0  0
   -2.1772    0.5710   -3.7669 C   0  0  1  0  0  0
   -3.5999    1.0363   -4.2233 C   0  0  0  0  0  0
   -2.2005   -0.9149   -3.2206 C   0  0  0  0  0  0
   -1.4490   -1.7690   -3.6958 O   0  0  0  0  0  0
   -3.0713   -1.4086   -2.0514 C   0  0  2  0  0  0
   -4.4456   -1.4665   -2.3570 O   0  0  0  0  0  0
   -2.6485   -0.7057   -0.7636 C   0  0  0  0  0  0
   -1.4356   -0.9908   -0.2095 C   0  0  0  0  0  0
   -0.5222   -2.1354   -0.6487 C   0  0  0  0  0  0
   -0.7969   -0.0604    0.8218 C   0  0  1  0  0  0
    0.6253   -0.1031    0.7383 O   0  0  0  0  0  0
    1.3932   -0.0529    1.8454 C   0  0  0  0  0  0
    0.9865    0.0528    3.0024 O   0  0  0  0  0  0
    2.8919   -0.1462    1.5350 C   0  0  2  0  0  0
    3.2298    0.9243    0.6733 O   0  0  0  0  0  0
    3.3043   -1.4908    0.8690 C   0  0  2  0  0  0
    2.8574   -2.7433    1.6809 C   0  0  0  0  0  0
    3.1588   -4.1656    1.1146 C   0  0  0  0  0  0
    2.2919   -5.1733    1.8977 C   0  0  0  0  0  0
    4.6335   -4.5763    1.3159 C   0  0  0  0  0  0
    2.7902   -4.2773   -0.3784 C   0  0  0  0  0  0
    4.7571   -1.4942    0.7085 N   0  0  0  0  0  0
    5.4034   -1.3882   -0.5127 C   0  0  0  0  0  0
    4.8660   -1.2836   -1.6153 O   0  0  0  0  0  0
    6.7368   -1.4362   -0.2850 O   0  0  0  0  0  0
    7.7349   -1.4026   -1.3147 C   0  0  0  0  0  0
    7.6932   -0.0740   -2.1010 C   0  0  0  0  0  0
    7.6163   -2.6250   -2.2512 C   0  0  0  0  0  0
    9.0667   -1.4883   -0.5494 C   0  0  0  0  0  0
   -1.2006    1.4161    0.6068 C   0  0  2  0  0  0
   -1.3826    2.0717    1.8405 O   0  0  0  0  0  0
   -2.4767    2.8184    1.8915 C   0  0  0  0  0  0
   -2.8281    3.5465    2.8159 O   0  0  0  0  0  0
   -3.1313    2.6127    0.7427 O   0  0  0  0  0  0
   -2.5297    1.6803   -0.1470 C   0  0  1  0  0  0
   -2.2812    2.3779   -1.5579 C   0  0  1  0  0  0
   -1.5244    3.5419   -1.2004 O   0  0  0  0  0  0
   -2.1176    4.7598   -0.9043 C   0  0  0  0  0  0
   -1.2448    5.7738   -0.4576 C   0  0  0  0  0  0
   -1.7284    7.0523   -0.1222 C   0  0  0  0  0  0
   -3.1017    7.3343   -0.2310 C   0  0  0  0  0  0
   -3.9862    6.3356   -0.6766 C   0  0  0  0  0  0
   -3.5017    5.0566   -1.0133 C   0  0  0  0  0  0
   -1.4611    1.6072   -2.7067 C   0  0  2  0  0  0
   -3.4830    0.4461   -0.1682 C   0  0  0  0  0  0
   -4.8195    0.8388   -0.8566 C   0  0  0  0  0  0
   -3.9641   -0.0185    1.2405 C   0  0  0  0  0  0
   -0.3614    0.0279   -4.9210 H   0  0  0  0  0  0
   -2.8401   -2.4630   -1.9193 H   0  0  0  0  0  0
   -1.1118   -0.4192    1.8011 H   0  0  0  0  0  0
    3.4410   -0.0187    2.4685 H   0  0  0  0  0  0
    2.8214   -1.5376   -0.1086 H   0  0  0  0  0  0
   -0.3878    1.9308    0.0978 H   0  0  0  0  0  0
   -3.2182    2.6945   -1.9858 H   0  0  0  0  0  0
    3.2758    1.2753   -3.9718 H   0  0  0  0  0  0
    3.7169    1.2008   -2.2602 H   0  0  0  0  0  0
    2.6974   -0.0616   -2.9648 H   0  0  0  0  0  0
   -0.9939    4.7261   -3.2145 H   0  0  0  0  0  0
    0.7594    4.3818   -3.0978 H   0  0  0  0  0  0
   -2.0611    3.2568   -4.7741 H   0  0  0  0  0  0
   -1.7528    1.9970   -6.6694 H   0  0  0  0  0  0
   -0.0528    1.7123   -6.3833 H   0  0  0  0  0  0
   -1.9661   -1.2653   -5.7536 H   0  0  0  0  0  0
   -3.9634    1.9251   -3.7227 H   0  0  0  0  0  0
   -3.6323    1.3198   -5.2745 H   0  0  0  0  0  0
   -4.3614    0.2663   -4.1300 H   0  0  0  0  0  0
   -4.9023   -1.8350   -1.6164 H   0  0  0  0  0  0
   -0.0785   -2.6036    0.2297 H   0  0  0  0  0  0
   -1.0251   -2.9335   -1.1881 H   0  0  0  0  0  0
    0.2857   -1.7604   -1.2782 H   0  0  0  0  0  0
    3.0572    1.7375    1.1226 H   0  0  0  0  0  0
    3.2615   -2.6704    2.6917 H   0  0  0  0  0  0
    1.7770   -2.6856    1.8086 H   0  0  0  0  0  0
    1.2276   -4.9699    1.7723 H   0  0  0  0  0  0
    2.4648   -6.1967    1.5623 H   0  0  0  0  0  0
    2.5092   -5.1384    2.9660 H   0  0  0  0  0  0
    5.3150   -4.0248    0.6718 H   0  0  0  0  0  0
    4.9524   -4.4248    2.3476 H   0  0  0  0  0  0
    4.7824   -5.6311    1.0825 H   0  0  0  0  0  0
    3.4231   -3.6470   -1.0020 H   0  0  0  0  0  0
    2.9093   -5.2998   -0.7385 H   0  0  0  0  0  0
    1.7555   -3.9879   -0.5582 H   0  0  0  0  0  0
    5.3429   -1.5769    1.5266 H   0  0  0  0  0  0
    7.7441    0.7836   -1.4296 H   0  0  0  0  0  0
    8.5351   -0.0024   -2.7902 H   0  0  0  0  0  0
    6.7874    0.0276   -2.6978 H   0  0  0  0  0  0
    7.6090   -3.5570   -1.6849 H   0  0  0  0  0  0
    6.7089   -2.5992   -2.8540 H   0  0  0  0  0  0
    8.4565   -2.6684   -2.9450 H   0  0  0  0  0  0
    9.1293   -2.4056    0.0374 H   0  0  0  0  0  0
    9.9184   -1.4751   -1.2303 H   0  0  0  0  0  0
    9.1835   -0.6504    0.1390 H   0  0  0  0  0  0
   -0.1884    5.5659   -0.3693 H   0  0  0  0  0  0
   -1.0451    7.8155    0.2201 H   0  0  0  0  0  0
   -3.4765    8.3136    0.0281 H   0  0  0  0  0  0
   -5.0417    6.5496   -0.7578 H   0  0  0  0  0  0
   -4.2279    4.3289   -1.3361 H   0  0  0  0  0  0
   -0.8192    0.9617   -2.1114 H   0  0  0  0  0  0
   -5.2440    1.7403   -0.4140 H   0  0  0  0  0  0
   -4.7248    1.0399   -1.9130 H   0  0  0  0  0  0
   -5.5842    0.0704   -0.7384 H   0  0  0  0  0  0
   -4.6292    0.7106    1.7053 H   0  0  0  0  0  0
   -4.5282   -0.9492    1.1682 H   0  0  0  0  0  0
   -3.1662   -0.1973    1.9549 H   0  0  0  0  0  0
  1  2  1  0  0  0
  1 66  1  0  0  0
  1 67  1  0  0  0
  1 68  1  0  0  0
  2  3  2  0  0  0
  2  4  1  0  0  0
  4  5  1  0  0  0
  5  8  1  0  0  0
  5 55  1  0  0  0
  5  6  1  0  0  0
  6  7  1  0  0  0
  6 69  1  0  0  0
  6 70  1  0  0  0
  7  8  1  0  0  0
  8  9  1  0  0  0
  8 71  1  0  0  0
  9 10  1  0  0  0
  9 72  1  0  0  0
  9 73  1  0  0  0
 10 59  1  0  0  0
 10 11  1  0  0  0
 10 12  1  0  0  0
 11 74  1  0  0  0
 12 55  1  0  0  0
 12 13  1  0  0  0
 12 14  1  0  0  0
 13 75  1  0  0  0
 13 76  1  0  0  0
 13 77  1  0  0  0
 14 15  2  0  0  0
 14 16  1  0  0  0
 16 60  1  0  0  0
 16 17  1  0  0  0
 16 18  1  0  0  0
 17 78  1  0  0  0
 18 56  1  0  0  0
 18 19  2  0  0  0
 19 20  1  0  0  0
 19 21  1  0  0  0
 20 79  1  0  0  0
 20 80  1  0  0  0
 20 81  1  0  0  0
 21 61  1  0  0  0
 21 22  1  0  0  0
 21 41  1  0  0  0
 22 23  1  0  0  0
 23 24  2  0  0  0
 23 25  1  0  0  0
 25 62  1  0  0  0
 25 26  1  0  0  0
 25 27  1  0  0  0
 26 82  1  0  0  0
 27 63  1  0  0  0
 27 28  1  0  0  0
 27 33  1  0  0  0
 28 29  1  0  0  0
 28 83  1  0  0  0
 28 84  1  0  0  0
 29 30  1  0  0  0
 29 31  1  0  0  0
 29 32  1  0  0  0
 30 85  1  0  0  0
 30 86  1  0  0  0
 30 87  1  0  0  0
 31 88  1  0  0  0
 31 89  1  0  0  0
 31 90  1  0  0  0
 32 91  1  0  0  0
 32 92  1  0  0  0
 32 93  1  0  0  0
 33 34  1  0  0  0
 33 94  1  0  0  0
 34 35  2  0  0  0
 34 36  1  0  0  0
 36 37  1  0  0  0
 37 38  1  0  0  0
 37 39  1  0  0  0
 37 40  1  0  0  0
 38 95  1  0  0  0
 38 96  1  0  0  0
 38 97  1  0  0  0
 39 98  1  0  0  0
 39 99  1  0  0  0
 39100  1  0  0  0
 40101  1  0  0  0
 40102  1  0  0  0
 40103  1  0  0  0
 41 64  1  0  0  0
 41 46  1  0  0  0
 41 42  1  0  0  0
 42 43  1  0  0  0
 43 44  2  0  0  0
 43 45  1  0  0  0
 45 46  1  0  0  0
 46 47  1  0  0  0
 46 56  1  0  0  0
 47 65  1  0  0  0
 47 48  1  0  0  0
 47 55  1  0  0  0
 48 49  1  0  0  0
 49 54  1  0  0  0
 49 50  2  0  0  0
 50 51  1  0  0  0
 50104  1  0  0  0
 51 52  2  0  0  0
 51105  1  0  0  0
 52 53  1  0  0  0
 52106  1  0  0  0
 53 54  2  0  0  0
 53107  1  0  0  0
 54108  1  0  0  0
 55109  1  0  0  0
 56 57  1  0  0  0
 56 58  1  0  0  0
 57110  1  0  0  0
 57111  1  0  0  0
 57112  1  0  0  0
 58113  1  0  0  0
 58114  1  0  0  0
 58115  1  0  0  0
M  END
$$$$
220
                    3D
 Schrodinger Suite 2021-2.
 94 98  0  0  1  0            999 V2000
   -9.2662    5.1296    0.9459 C   0  0  0  0  0  0
   -8.5535    4.2686    0.2018 C   0  0  0  0  0  0
   -7.0824    4.1580    0.1560 C   0  0  0  0  0  0
   -6.3956    3.0058   -0.1290 C   0  0  0  0  0  0
   -5.0480    3.2424   -0.0262 N   0  0  0  0  0  0
   -4.8933    4.5523    0.3447 C   0  0  0  0  0  0
   -6.1145    5.1782    0.4743 C   0  0  0  0  0  0
   -6.3718    6.6239    0.8376 C   0  0  0  0  0  0
   -3.6342    5.1762    0.5485 C   0  0  0  0  0  0
   -2.3299    4.6302    0.3654 C   0  0  0  0  0  0
   -2.0679    3.3526    0.0169 N   0  0  0  0  0  0
   -0.7384    3.2990   -0.2127 C   0  0  0  0  0  0
    0.0317    2.0781   -0.2737 C   0  0  0  0  0  0
    1.5533    2.2739   -0.3326 C   0  0  0  0  0  0
    2.2141    2.4458    1.0404 C   0  0  0  0  0  0
    1.5601    2.5355    2.0812 O   0  0  0  0  0  0
    3.5518    2.4779    0.9518 O   0  0  0  0  0  0
    4.3276    2.6164    2.1292 C   0  0  0  0  0  0
   -0.5254    0.7396   -0.3093 C   0  0  0  0  0  0
   -1.8766    0.5048   -0.4673 N   0  0  0  0  0  0
   -2.0644   -0.8528   -0.5919 C   0  0  0  0  0  0
   -0.8745   -1.5147   -0.4871 C   0  0  0  0  0  0
   -0.6578   -3.0101   -0.5561 C   0  0  0  0  0  0
    0.1156   -0.4975   -0.2657 C   0  0  0  0  0  0
    1.5413   -0.7829   -0.0031 C   0  0  0  0  0  0
    2.3206   -1.0391   -0.9205 O   0  0  0  0  0  0
    1.9010   -0.7882    1.2889 N   0  0  0  0  0  0
    3.2440   -1.0610    1.7847 C   0  0  0  0  0  0
    3.5436   -2.5673    1.8028 C   0  0  0  0  0  0
    4.8167   -2.7916    2.3677 O   0  0  0  0  0  0
   -3.3115   -1.5017   -0.8032 C   0  0  0  0  0  0
   -4.5788   -0.8694   -0.8313 C   0  0  0  0  0  0
   -4.8669    0.4178   -0.6335 N   0  0  0  0  0  0
   -6.1948    0.5672   -0.6721 C   0  0  0  0  0  0
   -6.9587    1.7421   -0.4533 C   0  0  0  0  0  0
   -6.8416   -0.6841   -0.9486 C   0  0  0  0  0  0
   -8.3304   -0.9532   -1.0611 C   0  0  0  0  0  0
   -5.7773   -1.6320   -1.0605 C   0  0  0  0  0  0
   -5.9077   -3.1209   -1.3342 C   0  0  0  0  0  0
   -5.9797   -3.9421   -0.0430 C   0  0  0  0  0  0
   -0.1349    4.6951   -0.3592 C   0  0  1  0  0  0
   -0.1703    5.1961   -1.8308 C   0  0  0  0  0  0
    0.6129    4.3429   -2.8450 C   0  0  0  0  0  0
    0.3933    4.8102   -4.2821 C   0  0  0  0  0  0
    1.2875    5.3684   -4.9185 O   0  0  0  0  0  0
   -0.8426    4.5366   -4.7315 O   0  0  0  0  0  0
   -1.2050    4.9029   -6.0513 C   0  0  0  0  0  0
   -1.0801    5.4652    0.5455 C   0  0  1  0  0  0
   -1.2171    6.9788    0.2761 C   0  0  0  0  0  0
   -4.3081    2.5714   -0.1791 H   0  0  0  0  0  0
   -2.5960    1.2113   -0.5310 H   0  0  0  0  0  0
   -8.8017    5.8290    1.6232 H   0  0  0  0  0  0
  -10.3445    5.1380    0.8885 H   0  0  0  0  0  0
   -9.1022    3.6011   -0.4455 H   0  0  0  0  0  0
   -5.5552    7.2695    0.5174 H   0  0  0  0  0  0
   -7.2720    6.9911    0.3460 H   0  0  0  0  0  0
   -6.4929    6.7285    1.9157 H   0  0  0  0  0  0
   -3.6702    6.2089    0.8538 H   0  0  0  0  0  0
    2.0357    1.4824   -0.8967 H   0  0  0  0  0  0
    1.8005    3.1566   -0.9118 H   0  0  0  0  0  0
    5.3876    2.6182    1.8756 H   0  0  0  0  0  0
    4.0974    3.5528    2.6391 H   0  0  0  0  0  0
    4.1436    1.7895    2.8162 H   0  0  0  0  0  0
    0.3906   -3.2769   -0.4271 H   0  0  0  0  0  0
   -1.2315   -3.5097    0.2246 H   0  0  0  0  0  0
   -0.9851   -3.3924   -1.5230 H   0  0  0  0  0  0
    1.1914   -0.5845    1.9782 H   0  0  0  0  0  0
    3.9822   -0.5279    1.1829 H   0  0  0  0  0  0
    3.3138   -0.6550    2.7943 H   0  0  0  0  0  0
    2.7969   -3.1029    2.3900 H   0  0  0  0  0  0
    3.5254   -2.9812    0.7941 H   0  0  0  0  0  0
    4.9939   -3.7197    2.3480 H   0  0  0  0  0  0
   -3.2875   -2.5734   -0.9253 H   0  0  0  0  0  0
   -8.0333    1.6637   -0.5100 H   0  0  0  0  0  0
   -8.5395   -2.0194   -1.1386 H   0  0  0  0  0  0
   -8.8509   -0.5752   -0.1812 H   0  0  0  0  0  0
   -8.7371   -0.4584   -1.9431 H   0  0  0  0  0  0
   -6.7992   -3.2984   -1.9351 H   0  0  0  0  0  0
   -5.0705   -3.4549   -1.9465 H   0  0  0  0  0  0
   -6.0757   -5.0053   -0.2637 H   0  0  0  0  0  0
   -5.0821   -3.8066    0.5610 H   0  0  0  0  0  0
   -6.8381   -3.6478    0.5615 H   0  0  0  0  0  0
    0.8733    4.7858    0.0419 H   0  0  0  0  0  0
   -1.2099    5.2625   -2.1565 H   0  0  0  0  0  0
    0.2256    6.2113   -1.8743 H   0  0  0  0  0  0
    1.6799    4.3810   -2.6265 H   0  0  0  0  0  0
    0.3070    3.2987   -2.7833 H   0  0  0  0  0  0
   -2.2358    4.6075   -6.2462 H   0  0  0  0  0  0
   -1.1278    5.9817   -6.1917 H   0  0  0  0  0  0
   -0.5652    4.4079   -6.7828 H   0  0  0  0  0  0
   -0.7650    5.3263    1.5814 H   0  0  0  0  0  0
   -1.8368    7.4612    1.0317 H   0  0  0  0  0  0
   -0.2421    7.4652    0.3098 H   0  0  0  0  0  0
   -1.6641    7.1877   -0.6960 H   0  0  0  0  0  0
  1  2  2  0  0  0
  1 52  1  0  0  0
  1 53  1  0  0  0
  2  3  1  0  0  0
  2 54  1  0  0  0
  3  7  1  0  0  0
  3  4  2  0  0  0
  4 35  1  0  0  0
  4  5  1  0  0  0
  5 50  1  0  0  0
  5  6  1  0  0  0
  6  7  2  0  0  0
  6  9  1  0  0  0
  7  8  1  0  0  0
  8 55  1  0  0  0
  8 56  1  0  0  0
  8 57  1  0  0  0
  9 10  2  0  0  0
  9 58  1  0  0  0
 10 48  1  0  0  0
 10 11  1  0  0  0
 11 12  2  0  0  0
 12 13  1  0  0  0
 12 41  1  0  0  0
 13 14  1  0  0  0
 13 19  2  0  0  0
 14 15  1  0  0  0
 14 59  1  0  0  0
 14 60  1  0  0  0
 15 16  2  0  0  0
 15 17  1  0  0  0
 17 18  1  0  0  0
 18 61  1  0  0  0
 18 62  1  0  0  0
 18 63  1  0  0  0
 19 24  1  0  0  0
 19 20  1  0  0  0
 20 51  1  0  0  0
 20 21  1  0  0  0
 21 22  1  0  0  0
 21 31  2  0  0  0
 22 23  1  0  0  0
 22 24  2  0  0  0
 23 64  1  0  0  0
 23 65  1  0  0  0
 23 66  1  0  0  0
 24 25  1  0  0  0
 25 26  2  0  0  0
 25 27  1  0  0  0
 27 28  1  0  0  0
 27 67  1  0  0  0
 28 29  1  0  0  0
 28 68  1  0  0  0
 28 69  1  0  0  0
 29 30  1  0  0  0
 29 70  1  0  0  0
 29 71  1  0  0  0
 30 72  1  0  0  0
 31 32  1  0  0  0
 31 73  1  0  0  0
 32 38  1  0  0  0
 32 33  2  0  0  0
 33 34  1  0  0  0
 34 35  2  0  0  0
 34 36  1  0  0  0
 35 74  1  0  0  0
 36 37  1  0  0  0
 36 38  2  0  0  0
 37 75  1  0  0  0
 37 76  1  0  0  0
 37 77  1  0  0  0
 38 39  1  0  0  0
 39 40  1  0  0  0
 39 78  1  0  0  0
 39 79  1  0  0  0
 40 80  1  0  0  0
 40 81  1  0  0  0
 40 82  1  0  0  0
 41 42  1  0  0  0
 41 48  1  0  0  0
 41 83  1  0  0  0
 42 43  1  0  0  0
 42 84  1  0  0  0
 42 85  1  0  0  0
 43 44  1  0  0  0
 43 86  1  0  0  0
 43 87  1  0  0  0
 44 45  2  0  0  0
 44 46  1  0  0  0
 46 47  1  0  0  0
 47 88  1  0  0  0
 47 89  1  0  0  0
 47 90  1  0  0  0
 48 49  1  0  0  0
 48 91  1  0  0  0
 49 92  1  0  0  0
 49 93  1  0  0  0
 49 94  1  0  0  0
M  END
$$$$
221
                    3D
 Schrodinger Suite 2021-2.
111115  0  0  1  0            999 V2000
   -4.6475   -5.3495    1.1998 C   0  0  0  0  0  0
   -4.5051   -4.9270   -0.2643 C   0  0  0  0  0  0
   -4.2595   -3.5321   -0.3283 O   0  0  0  0  0  0
   -4.1128   -2.9371   -1.5236 C   0  0  0  0  0  0
   -4.1706   -3.4940   -2.6201 O   0  0  0  0  0  0
   -3.8432   -1.4374   -1.4065 C   0  0  0  0  0  0
   -2.3445   -1.0946   -1.3339 C   0  0  0  0  0  0
   -1.6483   -1.5646   -0.0427 C   0  0  0  0  0  0
   -0.2353   -1.2075   -0.0361 N   0  0  0  0  0  0
    0.2622    0.0050    0.2616 C   0  0  0  0  0  0
   -0.4646    0.9503    0.5718 O   0  0  0  0  0  0
    1.8113    0.1622    0.2248 C   0  0  2  0  0  0
    2.3377   -0.4851    1.5363 C   0  0  0  0  0  0
    3.8199   -0.2070    1.8404 C   0  0  0  0  0  0
    4.1654    1.2965    1.8627 C   0  0  0  0  0  0
    3.5102    2.0077    3.0673 C   0  0  0  0  0  0
    5.6928    1.4538    1.9987 C   0  0  0  0  0  0
    3.7151    1.9225    0.5245 C   0  0  0  0  0  0
    2.2286    1.6652    0.1651 C   0  0  1  0  0  0
    1.8307    2.3595   -1.1489 C   0  0  0  0  0  0
    1.3303    3.6094   -1.0975 C   0  0  0  0  0  0
    0.8864    4.4362   -2.2865 C   0  0  0  0  0  0
    1.1111    3.7506   -3.6630 C   0  0  2  0  0  0
    0.4409    4.4980   -4.8921 C   0  0  1  0  0  0
   -1.1068    4.6477   -4.7430 C   0  0  0  0  0  0
    1.0505    5.9281   -4.9775 C   0  0  0  0  0  0
    0.7459    6.6747   -6.2877 C   0  0  0  0  0  0
    1.1969    5.8648   -7.5133 C   0  0  2  0  0  0
    0.8934    6.5887   -8.7038 O   0  0  0  0  0  0
    1.7775    7.4570   -9.2306 C   0  0  0  0  0  0
    1.2742    8.0799  -10.5253 C   0  0  0  0  0  0
    2.8803    7.7450   -8.7653 O   0  0  0  0  0  0
    0.5855    4.4350   -7.5722 C   0  0  1  0  0  0
   -0.9196    4.4828   -7.9357 C   0  0  0  0  0  0
    1.2751    3.6657   -8.7369 C   0  0  0  0  0  0
    2.6662    3.4493   -8.5149 O   0  0  0  0  0  0
    3.5939    3.9864   -9.3286 C   0  0  0  0  0  0
    5.0122    3.6619   -8.8797 C   0  0  0  0  0  0
    3.3801    4.6694  -10.3301 O   0  0  0  0  0  0
    0.8566    3.7239   -6.1934 C   0  0  2  0  0  0
    0.4219    2.2409   -6.1139 C   0  0  0  0  0  0
    1.1484    1.5333   -4.9649 C   0  0  0  0  0  0
    0.9458    2.1860   -3.5628 C   0  0  2  0  0  0
   -0.5111    1.8383   -3.1165 C   0  0  0  0  0  0
    2.0087    1.6180   -2.4983 C   0  0  1  0  0  0
    3.4891    1.8660   -2.9281 C   0  0  0  0  0  0
    1.8643    0.0661   -2.3449 C   0  0  0  0  0  0
    2.4097   -0.5257   -1.0306 C   0  0  0  0  0  0
    1.6736    2.1814    0.9488 H   0  0  0  0  0  0
    2.1715    3.8925   -3.8548 H   0  0  0  0  0  0
    2.2785    5.7482   -7.4324 H   0  0  0  0  0  0
    1.9459    3.6915   -6.1400 H   0  0  0  0  0  0
   -4.8370   -6.4202    1.2777 H   0  0  0  0  0  0
   -3.7398   -5.1290    1.7624 H   0  0  0  0  0  0
   -5.4760   -4.8281    1.6794 H   0  0  0  0  0  0
   -3.6825   -5.4696   -0.7321 H   0  0  0  0  0  0
   -5.4155   -5.1693   -0.8143 H   0  0  0  0  0  0
   -4.2859   -0.9453   -2.2727 H   0  0  0  0  0  0
   -4.3598   -1.0455   -0.5299 H   0  0  0  0  0  0
   -1.8306   -1.5116   -2.2013 H   0  0  0  0  0  0
   -2.2446   -0.0125   -1.4194 H   0  0  0  0  0  0
   -2.1453   -1.1477    0.8347 H   0  0  0  0  0  0
   -1.7080   -2.6487    0.0514 H   0  0  0  0  0  0
    0.4192   -1.9384   -0.2752 H   0  0  0  0  0  0
    1.7425   -0.1464    2.3857 H   0  0  0  0  0  0
    2.1907   -1.5655    1.4987 H   0  0  0  0  0  0
    4.0825   -0.6627    2.7959 H   0  0  0  0  0  0
    4.4341   -0.7143    1.0957 H   0  0  0  0  0  0
    3.7651    3.0678    3.0838 H   0  0  0  0  0  0
    2.4234    1.9399    3.0586 H   0  0  0  0  0  0
    3.8500    1.5767    4.0097 H   0  0  0  0  0  0
    5.9854    2.5043    1.9981 H   0  0  0  0  0  0
    6.0567    1.0122    2.9272 H   0  0  0  0  0  0
    6.2221    0.9678    1.1783 H   0  0  0  0  0  0
    3.9000    2.9975    0.5450 H   0  0  0  0  0  0
    4.3651    1.5345   -0.2524 H   0  0  0  0  0  0
    1.2178    4.0960   -0.1395 H   0  0  0  0  0  0
   -0.1592    4.6624   -2.0990 H   0  0  0  0  0  0
    1.4176    5.3871   -2.2464 H   0  0  0  0  0  0
   -1.4861    5.5670   -5.1806 H   0  0  0  0  0  0
   -1.6659    3.8468   -5.2196 H   0  0  0  0  0  0
   -1.4461    4.6872   -3.7131 H   0  0  0  0  0  0
    0.7053    6.5373   -4.1419 H   0  0  0  0  0  0
    2.1357    5.8751   -4.8774 H   0  0  0  0  0  0
   -0.3089    6.9315   -6.3669 H   0  0  0  0  0  0
    1.2722    7.6297   -6.2723 H   0  0  0  0  0  0
    1.2410    7.3290  -11.3148 H   0  0  0  0  0  0
    0.2716    8.4852  -10.3882 H   0  0  0  0  0  0
    1.9335    8.8876  -10.8439 H   0  0  0  0  0  0
   -1.3850    3.5009   -7.8534 H   0  0  0  0  0  0
   -1.4905    5.1734   -7.3228 H   0  0  0  0  0  0
   -1.0649    4.8109   -8.9655 H   0  0  0  0  0  0
    0.8065    2.6934   -8.8819 H   0  0  0  0  0  0
    1.1033    4.1948   -9.6751 H   0  0  0  0  0  0
    5.1452    3.9159   -7.8279 H   0  0  0  0  0  0
    5.2164    2.5991   -9.0092 H   0  0  0  0  0  0
    5.7373    4.2277   -9.4652 H   0  0  0  0  0  0
   -0.6555    2.1286   -6.0158 H   0  0  0  0  0  0
    0.6815    1.7085   -7.0263 H   0  0  0  0  0  0
    0.8461    0.4857   -4.9434 H   0  0  0  0  0  0
    2.1917    1.5179   -5.2596 H   0  0  0  0  0  0
   -0.7486    0.7831   -3.2278 H   0  0  0  0  0  0
   -0.7173    2.1049   -2.0813 H   0  0  0  0  0  0
   -1.2667    2.3298   -3.7153 H   0  0  0  0  0  0
    3.7273    1.5435   -3.9363 H   0  0  0  0  0  0
    3.7842    2.9112   -2.8401 H   0  0  0  0  0  0
    4.1886    1.3065   -2.3154 H   0  0  0  0  0  0
    0.8345   -0.2611   -2.4233 H   0  0  0  0  0  0
    2.3583   -0.4300   -3.1812 H   0  0  0  0  0  0
    3.4955   -0.4492   -1.0257 H   0  0  0  0  0  0
    2.2126   -1.5982   -1.0121 H   0  0  0  0  0  0
  1  2  1  0  0  0
  1 53  1  0  0  0
  1 54  1  0  0  0
  1 55  1  0  0  0
  2  3  1  0  0  0
  2 56  1  0  0  0
  2 57  1  0  0  0
  3  4  1  0  0  0
  4  5  2  0  0  0
  4  6  1  0  0  0
  6  7  1  0  0  0
  6 58  1  0  0  0
  6 59  1  0  0  0
  7  8  1  0  0  0
  7 60  1  0  0  0
  7 61  1  0  0  0
  8  9  1  0  0  0
  8 62  1  0  0  0
  8 63  1  0  0  0
  9 10  1  0  0  0
  9 64  1  0  0  0
 10 11  2  0  0  0
 10 12  1  0  0  0
 12 19  1  0  0  0
 12 48  1  0  0  0
 12 13  1  0  0  0
 13 14  1  0  0  0
 13 65  1  0  0  0
 13 66  1  0  0  0
 14 15  1  0  0  0
 14 67  1  0  0  0
 14 68  1  0  0  0
 15 16  1  0  0  0
 15 17  1  0  0  0
 15 18  1  0  0  0
 16 69  1  0  0  0
 16 70  1  0  0  0
 16 71  1  0  0  0
 17 72  1  0  0  0
 17 73  1  0  0  0
 17 74  1  0  0  0
 18 19  1  0  0  0
 18 75  1  0  0  0
 18 76  1  0  0  0
 19 49  1  0  0  0
 19 20  1  0  0  0
 20 45  1  0  0  0
 20 21  2  0  0  0
 21 22  1  0  0  0
 21 77  1  0  0  0
 22 23  1  0  0  0
 22 78  1  0  0  0
 22 79  1  0  0  0
 23 50  1  0  0  0
 23 43  1  0  0  0
 23 24  1  0  0  0
 24 40  1  0  0  0
 24 25  1  0  0  0
 24 26  1  0  0  0
 25 80  1  0  0  0
 25 81  1  0  0  0
 25 82  1  0  0  0
 26 27  1  0  0  0
 26 83  1  0  0  0
 26 84  1  0  0  0
 27 28  1  0  0  0
 27 85  1  0  0  0
 27 86  1  0  0  0
 28 51  1  0  0  0
 28 29  1  0  0  0
 28 33  1  0  0  0
 29 30  1  0  0  0
 30 31  1  0  0  0
 30 32  2  0  0  0
 31 87  1  0  0  0
 31 88  1  0  0  0
 31 89  1  0  0  0
 33 34  1  0  0  0
 33 35  1  0  0  0
 33 40  1  0  0  0
 34 90  1  0  0  0
 34 91  1  0  0  0
 34 92  1  0  0  0
 35 36  1  0  0  0
 35 93  1  0  0  0
 35 94  1  0  0  0
 36 37  1  0  0  0
 37 38  1  0  0  0
 37 39  2  0  0  0
 38 95  1  0  0  0
 38 96  1  0  0  0
 38 97  1  0  0  0
 40 52  1  0  0  0
 40 41  1  0  0  0
 41 42  1  0  0  0
 41 98  1  0  0  0
 41 99  1  0  0  0
 42 43  1  0  0  0
 42100  1  0  0  0
 42101  1  0  0  0
 43 44  1  0  0  0
 43 45  1  0  0  0
 44102  1  0  0  0
 44103  1  0  0  0
 44104  1  0  0  0
 45 46  1  0  0  0
 45 47  1  0  0  0
 46105  1  0  0  0
 46106  1  0  0  0
 46107  1  0  0  0
 47 48  1  0  0  0
 47108  1  0  0  0
 47109  1  0  0  0
 48110  1  0  0  0
 48111  1  0  0  0
M  END
$$$$
222
                    3D
 Schrodinger Suite 2021-2.
 37 37  0  0  1  0            999 V2000
   -2.7141    2.0268    1.2237 C   0  0  0  0  0  0
   -2.0939    1.5959    0.1126 C   0  0  0  0  0  0
   -2.8592    1.2698   -1.1562 C   0  0  0  0  0  0
   -0.5867    1.4142    0.0512 C   0  0  0  0  0  0
   -0.1748   -0.0552   -0.1050 C   0  0  0  0  0  0
    1.2405   -0.1488   -0.0988 O   0  0  0  0  0  0
    1.8358   -1.3538   -0.2064 C   0  0  0  0  0  0
    1.2156   -2.4130   -0.3220 O   0  0  0  0  0  0
    3.3247   -1.2735   -0.1653 C   0  0  0  0  0  0
    4.0840   -2.4647   -0.2262 C   0  0  0  0  0  0
    5.4905   -2.4224   -0.1819 C   0  0  0  0  0  0
    6.1609   -1.1879   -0.0728 C   0  0  0  0  0  0
    7.6774   -1.1440   -0.0212 C   0  0  0  0  0  0
    8.2962   -1.5500    1.6729 S   0  0  0  0  0  0
    7.5975   -0.1835    2.6894 C   0  0  0  0  0  0
    7.6787   -2.8083    2.1193 O   0  0  0  0  0  0
    9.7607   -1.4167    1.6702 O   0  0  0  0  0  0
    5.4125    0.0052   -0.0215 C   0  0  0  0  0  0
    4.0054   -0.0356   -0.0650 C   0  0  0  0  0  0
   -2.1602    2.2588    2.1216 H   0  0  0  0  0  0
   -3.7865    2.1544    1.2538 H   0  0  0  0  0  0
   -2.4853    1.8678   -1.9876 H   0  0  0  0  0  0
   -2.7503    0.2163   -1.4136 H   0  0  0  0  0  0
   -3.9237    1.4779   -1.0422 H   0  0  0  0  0  0
   -0.1951    2.0034   -0.7787 H   0  0  0  0  0  0
   -0.1359    1.8206    0.9576 H   0  0  0  0  0  0
   -0.5860   -0.6483    0.7132 H   0  0  0  0  0  0
   -0.5628   -0.4644   -1.0385 H   0  0  0  0  0  0
    3.5955   -3.4255   -0.3041 H   0  0  0  0  0  0
    6.0537   -3.3431   -0.2253 H   0  0  0  0  0  0
    8.0962   -1.8675   -0.7210 H   0  0  0  0  0  0
    8.0504   -0.1587   -0.3017 H   0  0  0  0  0  0
    7.9502   -0.2817    3.7158 H   0  0  0  0  0  0
    7.9215    0.7755    2.2861 H   0  0  0  0  0  0
    6.5091   -0.2355    2.6801 H   0  0  0  0  0  0
    5.9151    0.9582    0.0577 H   0  0  0  0  0  0
    3.4649    0.8985   -0.0193 H   0  0  0  0  0  0
  1  2  2  0  0  0
  1 20  1  0  0  0
  1 21  1  0  0  0
  2  3  1  0  0  0
  2  4  1  0  0  0
  3 22  1  0  0  0
  3 23  1  0  0  0
  3 24  1  0  0  0
  4  5  1  0  0  0
  4 25  1  0  0  0
  4 26  1  0  0  0
  5  6  1  0  0  0
  5 27  1  0  0  0
  5 28  1  0  0  0
  6  7  1  0  0  0
  7  8  2  0  0  0
  7  9  1  0  0  0
  9 19  1  0  0  0
  9 10  2  0  0  0
 10 11  1  0  0  0
 10 29  1  0  0  0
 11 12  2  0  0  0
 11 30  1  0  0  0
 12 13  1  0  0  0
 12 18  1  0  0  0
 13 14  1  0  0  0
 13 31  1  0  0  0
 13 32  1  0  0  0
 14 15  1  0  0  0
 14 16  2  0  0  0
 14 17  2  0  0  0
 15 33  1  0  0  0
 15 34  1  0  0  0
 15 35  1  0  0  0
 18 19  2  0  0  0
 18 36  1  0  0  0
 19 37  1  0  0  0
M  END
$$$$
223
                    3D
 Schrodinger Suite 2021-2.
 48 48  0  0  1  0            999 V2000
   -1.7232   -2.5492   -7.2740 C   0  0  0  0  0  0
   -1.1325   -1.9794   -5.9758 C   0  0  0  0  0  0
    0.3872   -2.2111   -5.9205 C   0  0  0  0  0  0
   -1.8621   -2.5538   -4.7441 C   0  0  0  0  0  0
   -1.4281   -1.9234   -3.4316 C   0  0  0  0  0  0
   -0.5737   -2.6225   -2.5546 C   0  0  0  0  0  0
   -0.1716   -2.0356   -1.3396 C   0  0  0  0  0  0
   -0.6189   -0.7420   -0.9876 C   0  0  0  0  0  0
   -0.1919   -0.0971    0.3275 C   0  0  1  0  0  0
   -0.6705   -0.9007    1.5512 C   0  0  0  0  0  0
    1.3266    0.1441    0.3304 C   0  0  0  0  0  0
    2.0846   -0.6223    0.9268 O   0  0  0  0  0  0
    1.7567    1.2217   -0.3441 N   0  0  0  0  0  0
    3.1488    1.6400   -0.4634 C   0  0  0  0  0  0
    3.6310    2.3766    0.7948 C   0  0  0  0  0  0
    2.8863    3.5739    0.9491 O   0  0  0  0  0  0
    3.2537    4.3022    2.1089 C   0  0  0  0  0  0
    2.3969    5.5706    2.1990 C   0  0  0  0  0  0
    1.1513    5.2760    2.7947 O   0  0  0  0  0  0
   -1.4765   -0.0466   -1.8674 C   0  0  0  0  0  0
   -1.8791   -0.6340   -3.0823 C   0  0  0  0  0  0
   -0.6649    0.8843    0.3925 H   0  0  0  0  0  0
   -1.5923   -3.6303   -7.3280 H   0  0  0  0  0  0
   -2.7908   -2.3391   -7.3473 H   0  0  0  0  0  0
   -1.2429   -2.1122   -8.1499 H   0  0  0  0  0  0
   -1.3009   -0.9018   -5.9938 H   0  0  0  0  0  0
    0.6236   -3.2741   -5.8652 H   0  0  0  0  0  0
    0.8773   -1.8075   -6.8070 H   0  0  0  0  0  0
    0.8362   -1.7242   -5.0545 H   0  0  0  0  0  0
   -2.9372   -2.4023   -4.8486 H   0  0  0  0  0  0
   -1.7147   -3.6335   -4.6941 H   0  0  0  0  0  0
   -0.2203   -3.6102   -2.8122 H   0  0  0  0  0  0
    0.4858   -2.5824   -0.6795 H   0  0  0  0  0  0
   -0.2684   -1.9144    1.5585 H   0  0  0  0  0  0
   -0.3699   -0.4179    2.4817 H   0  0  0  0  0  0
   -1.7580   -0.9786    1.5613 H   0  0  0  0  0  0
    1.0673    1.7998   -0.8025 H   0  0  0  0  0  0
    3.7810    0.7719   -0.6569 H   0  0  0  0  0  0
    3.2417    2.2897   -1.3339 H   0  0  0  0  0  0
    3.5224    1.7421    1.6759 H   0  0  0  0  0  0
    4.6909    2.6148    0.6955 H   0  0  0  0  0  0
    3.1553    3.6962    3.0113 H   0  0  0  0  0  0
    4.3036    4.5854    2.0220 H   0  0  0  0  0  0
    2.8957    6.3080    2.8280 H   0  0  0  0  0  0
    2.2545    6.0252    1.2183 H   0  0  0  0  0  0
    0.6514    6.0755    2.8570 H   0  0  0  0  0  0
   -1.8307    0.9421   -1.6149 H   0  0  0  0  0  0
   -2.5348   -0.0908   -3.7469 H   0  0  0  0  0  0
  1  2  1  0  0  0
  1 23  1  0  0  0
  1 24  1  0  0  0
  1 25  1  0  0  0
  2  3  1  0  0  0
  2  4  1  0  0  0
  2 26  1  0  0  0
  3 27  1  0  0  0
  3 28  1  0  0  0
  3 29  1  0  0  0
  4  5  1  0  0  0
  4 30  1  0  0  0
  4 31  1  0  0  0
  5 21  1  0  0  0
  5  6  2  0  0  0
  6  7  1  0  0  0
  6 32  1  0  0  0
  7  8  2  0  0  0
  7 33  1  0  0  0
  8  9  1  0  0  0
  8 20  1  0  0  0
  9 22  1  0  0  0
  9 10  1  0  0  0
  9 11  1  0  0  0
 10 34  1  0  0  0
 10 35  1  0  0  0
 10 36  1  0  0  0
 11 12  2  0  0  0
 11 13  1  0  0  0
 13 14  1  0  0  0
 13 37  1  0  0  0
 14 15  1  0  0  0
 14 38  1  0  0  0
 14 39  1  0  0  0
 15 16  1  0  0  0
 15 40  1  0  0  0
 15 41  1  0  0  0
 16 17  1  0  0  0
 17 18  1  0  0  0
 17 42  1  0  0  0
 17 43  1  0  0  0
 18 19  1  0  0  0
 18 44  1  0  0  0
 18 45  1  0  0  0
 19 46  1  0  0  0
 20 21  2  0  0  0
 20 47  1  0  0  0
 21 48  1  0  0  0
M  END
$$$$
224
                    3D
 Schrodinger Suite 2021-2.
 44 45  0  0  1  0            999 V2000
   -0.5666   -1.0101    1.3723 C   0  0  0  0  0  0
   -0.0600   -0.3195    0.0909 C   0  0  2  0  0  0
   -0.6160   -0.9557   -1.2083 C   0  0  0  0  0  0
   -2.4565   -0.8541   -1.3247 S   0  0  0  0  0  0
   -2.7499   -1.3967   -3.0566 C   0  0  0  0  0  0
   -3.0438   -1.8583   -0.4248 O   0  0  0  0  0  0
   -2.8564    0.5558   -1.2012 O   0  0  0  0  0  0
    1.4221   -0.2144    0.1042 N   0  0  0  0  0  0
    2.0658    0.9243    0.4810 C   0  0  0  0  0  0
    3.2594    1.1111    0.2369 O   0  0  0  0  0  0
    1.3047    2.0138    1.2619 C   0  0  0  0  0  0
    2.2269    2.9783    2.0314 C   0  0  0  0  0  0
    1.4422    3.9980    2.8350 C   0  0  0  0  0  0
    1.0923    5.2375    2.2592 C   0  0  0  0  0  0
    0.3624    6.1834    3.0056 C   0  0  0  0  0  0
   -0.0206    5.8930    4.3295 C   0  0  0  0  0  0
    0.3252    4.6557    4.9067 C   0  0  0  0  0  0
   -0.0437    4.3755    6.1790 F   0  0  0  0  0  0
    1.0549    3.7094    4.1607 C   0  0  0  0  0  0
    2.1280   -1.2778   -0.5747 C   0  0  0  0  0  0
    2.1721   -2.6617    0.0412 C   0  0  0  0  0  0
    3.4286   -1.8345   -0.0192 C   0  0  0  0  0  0
   -1.6273   -0.8184    1.5313 H   0  0  0  0  0  0
   -0.4331   -2.0902    1.3248 H   0  0  0  0  0  0
   -0.0445   -0.6525    2.2596 H   0  0  0  0  0  0
   -0.4847    0.6832    0.0916 H   0  0  0  0  0  0
   -0.2108   -0.4384   -2.0785 H   0  0  0  0  0  0
   -0.3429   -2.0077   -1.2936 H   0  0  0  0  0  0
   -3.8193   -1.3780   -3.2656 H   0  0  0  0  0  0
   -2.2361   -0.7243   -3.7432 H   0  0  0  0  0  0
   -2.3737   -2.4107   -3.1900 H   0  0  0  0  0  0
    0.6927    2.5831    0.5612 H   0  0  0  0  0  0
    0.6279    1.5462    1.9760 H   0  0  0  0  0  0
    2.8773    2.4212    2.7077 H   0  0  0  0  0  0
    2.8832    3.5097    1.3404 H   0  0  0  0  0  0
    1.3822    5.4664    1.2440 H   0  0  0  0  0  0
    0.0963    7.1316    2.5624 H   0  0  0  0  0  0
   -0.5798    6.6185    4.9015 H   0  0  0  0  0  0
    1.3157    2.7617    4.6088 H   0  0  0  0  0  0
    2.0919   -1.2351   -1.6617 H   0  0  0  0  0  0
    1.7393   -2.8111    1.0275 H   0  0  0  0  0  0
    2.0946   -3.5115   -0.6337 H   0  0  0  0  0  0
    4.1917   -2.1326   -0.7351 H   0  0  0  0  0  0
    3.8051   -1.4485    0.9259 H   0  0  0  0  0  0
  1  2  1  0  0  0
  1 23  1  0  0  0
  1 24  1  0  0  0
  1 25  1  0  0  0
  2  3  1  0  0  0
  2  8  1  0  0  0
  2 26  1  0  0  0
  3  4  1  0  0  0
  3 27  1  0  0  0
  3 28  1  0  0  0
  4  5  1  0  0  0
  4  6  2  0  0  0
  4  7  2  0  0  0
  5 29  1  0  0  0
  5 30  1  0  0  0
  5 31  1  0  0  0
  8  9  1  0  0  0
  8 20  1  0  0  0
  9 10  2  0  0  0
  9 11  1  0  0  0
 11 12  1  0  0  0
 11 32  1  0  0  0
 11 33  1  0  0  0
 12 13  1  0  0  0
 12 34  1  0  0  0
 12 35  1  0  0  0
 13 19  1  0  0  0
 13 14  2  0  0  0
 14 15  1  0  0  0
 14 36  1  0  0  0
 15 16  2  0  0  0
 15 37  1  0  0  0
 16 17  1  0  0  0
 16 38  1  0  0  0
 17 18  1  0  0  0
 17 19  2  0  0  0
 19 39  1  0  0  0
 20 22  1  0  0  0
 20 21  1  0  0  0
 20 40  1  0  0  0
 21 22  1  0  0  0
 21 41  1  0  0  0
 21 42  1  0  0  0
 22 43  1  0  0  0
 22 44  1  0  0  0
M  END
$$$$
225
                    3D
 Schrodinger Suite 2021-2.
 39 40  0  0  1  0            999 V2000
   -0.6812   -6.0498    0.1748 C   0  0  0  0  0  0
   -0.0136   -4.7968    0.2057 O   0  0  0  0  0  0
   -0.7749   -3.6522    0.1025 C   0  0  0  0  0  0
   -2.1855   -3.6443   -0.0036 C   0  0  0  0  0  0
   -2.8794   -2.4259   -0.0969 C   0  0  0  0  0  0
   -2.1797   -1.2030   -0.0926 C   0  0  0  0  0  0
   -2.9085   -0.0017   -0.1758 C   0  0  0  0  0  0
   -2.2354    1.2292   -0.1602 C   0  0  0  0  0  0
   -0.8332    1.2614   -0.0750 C   0  0  0  0  0  0
   -0.0739    0.0678   -0.0100 C   0  0  0  0  0  0
    1.4598    0.1553    0.0654 C   0  0  2  0  0  0
    1.9570    0.0408    1.5241 C   0  0  0  0  0  0
    1.6284    1.1913    2.2763 O   0  0  0  0  0  0
    2.0704    1.3606   -0.6976 C   0  0  0  0  0  0
    3.5282    1.3028   -0.7591 N   0  0  0  0  0  0
    4.2387    0.5549   -1.6182 C   0  0  0  0  0  0
    3.7204   -0.1763   -2.4624 O   0  0  0  0  0  0
    5.7620    0.6269   -1.4891 C   0  0  0  0  0  0
    6.3388    0.1650   -2.5992 F   0  0  0  0  0  0
    6.1447    1.8870   -1.2772 F   0  0  0  0  0  0
   -0.7615   -1.1830   -0.0007 C   0  0  0  0  0  0
   -0.0834   -2.4240    0.1060 C   0  0  0  0  0  0
    0.0540   -6.8506    0.2508 H   0  0  0  0  0  0
   -1.3712   -6.1551    1.0131 H   0  0  0  0  0  0
   -1.2246   -6.1893   -0.7608 H   0  0  0  0  0  0
   -2.7591   -4.5586   -0.0099 H   0  0  0  0  0  0
   -3.9573   -2.4358   -0.1698 H   0  0  0  0  0  0
   -3.9866   -0.0183   -0.2432 H   0  0  0  0  0  0
   -2.7949    2.1515   -0.2135 H   0  0  0  0  0  0
   -0.3538    2.2273   -0.0580 H   0  0  0  0  0  0
    1.8422   -0.7092   -0.4731 H   0  0  0  0  0  0
    1.5311   -0.8361    2.0120 H   0  0  0  0  0  0
    3.0396   -0.0852    1.5511 H   0  0  0  0  0  0
    1.9292    1.0666    3.1635 H   0  0  0  0  0  0
    1.6686    1.4082   -1.7113 H   0  0  0  0  0  0
    1.8112    2.3036   -0.2176 H   0  0  0  0  0  0
    4.0341    1.8734   -0.0970 H   0  0  0  0  0  0
    6.1083    0.0202   -0.6524 H   0  0  0  0  0  0
    0.9891   -2.4738    0.2029 H   0  0  0  0  0  0
  1  2  1  0  0  0
  1 23  1  0  0  0
  1 24  1  0  0  0
  1 25  1  0  0  0
  2  3  1  0  0  0
  3 22  1  0  0  0
  3  4  2  0  0  0
  4  5  1  0  0  0
  4 26  1  0  0  0
  5  6  2  0  0  0
  5 27  1  0  0  0
  6 21  1  0  0  0
  6  7  1  0  0  0
  7  8  2  0  0  0
  7 28  1  0  0  0
  8  9  1  0  0  0
  8 29  1  0  0  0
  9 10  2  0  0  0
  9 30  1  0  0  0
 10 11  1  0  0  0
 10 21  1  0  0  0
 11 12  1  0  0  0
 11 14  1  0  0  0
 11 31  1  0  0  0
 12 13  1  0  0  0
 12 32  1  0  0  0
 12 33  1  0  0  0
 13 34  1  0  0  0
 14 15  1  0  0  0
 14 35  1  0  0  0
 14 36  1  0  0  0
 15 16  1  0  0  0
 15 37  1  0  0  0
 16 17  2  0  0  0
 16 18  1  0  0  0
 18 19  1  0  0  0
 18 20  1  0  0  0
 18 38  1  0  0  0
 21 22  2  0  0  0
 22 39  1  0  0  0
M  END
$$$$
226
                    3D
 Schrodinger Suite 2021-2.
 35 36  0  0  1  0            999 V2000
   -0.1182    3.8404   -0.7701 C   0  0  0  0  0  0
    0.2236    2.4687   -0.8569 O   0  0  0  0  0  0
   -0.3462    1.6980    0.1881 C   0  0  0  0  0  0
    0.0798    0.2293    0.0469 C   0  0  0  0  0  0
    1.5277    0.0698    0.0802 N   0  0  0  0  0  0
    2.4051    0.0224   -0.9438 C   0  0  0  0  0  0
    1.9082    0.1631   -2.6832 S   0  0  0  0  0  0
    3.6728   -0.1414   -0.5595 N   0  0  0  0  0  0
    3.6355   -0.2099    0.8152 N   0  0  0  0  0  0
    2.3484   -0.0725    1.1426 C   0  0  0  0  0  0
    1.8544   -0.1128    2.5555 C   0  0  0  0  0  0
    1.5469   -1.5403    3.0286 C   0  0  0  0  0  0
    1.0185   -1.5692    4.4498 C   0  0  0  0  0  0
    1.9135   -1.6408    5.5378 C   0  0  0  0  0  0
    1.4217   -1.6628    6.8576 C   0  0  0  0  0  0
    0.0342   -1.6119    7.0939 C   0  0  0  0  0  0
   -0.8619   -1.5390    6.0098 C   0  0  0  0  0  0
   -0.3708   -1.5174    4.6899 C   0  0  0  0  0  0
    0.3401    4.3844   -1.5960 H   0  0  0  0  0  0
   -1.1979    3.9829   -0.8308 H   0  0  0  0  0  0
    0.2420    4.2778    0.1620 H   0  0  0  0  0  0
   -0.0266    2.0903    1.1545 H   0  0  0  0  0  0
   -1.4341    1.7705    0.1527 H   0  0  0  0  0  0
   -0.3607   -0.3684    0.8450 H   0  0  0  0  0  0
   -0.3038   -0.1859   -0.8849 H   0  0  0  0  0  0
    3.1403    0.0455   -3.1864 H   0  0  0  0  0  0
    2.6138    0.3333    3.1991 H   0  0  0  0  0  0
    0.9704    0.5170    2.6531 H   0  0  0  0  0  0
    0.8132   -2.0037    2.3677 H   0  0  0  0  0  0
    2.4452   -2.1561    2.9682 H   0  0  0  0  0  0
    2.9790   -1.6768    5.3629 H   0  0  0  0  0  0
    2.1092   -1.7174    7.6888 H   0  0  0  0  0  0
   -0.3419   -1.6278    8.1063 H   0  0  0  0  0  0
   -1.9259   -1.4984    6.1903 H   0  0  0  0  0  0
   -1.0633   -1.4590    3.8627 H   0  0  0  0  0  0
  1  2  1  0  0  0
  1 19  1  0  0  0
  1 20  1  0  0  0
  1 21  1  0  0  0
  2  3  1  0  0  0
  3  4  1  0  0  0
  3 22  1  0  0  0
  3 23  1  0  0  0
  4  5  1  0  0  0
  4 24  1  0  0  0
  4 25  1  0  0  0
  5 10  1  0  0  0
  5  6  1  0  0  0
  6  7  1  0  0  0
  6  8  2  0  0  0
  7 26  1  0  0  0
  8  9  1  0  0  0
  9 10  2  0  0  0
 10 11  1  0  0  0
 11 12  1  0  0  0
 11 27  1  0  0  0
 11 28  1  0  0  0
 12 13  1  0  0  0
 12 29  1  0  0  0
 12 30  1  0  0  0
 13 18  1  0  0  0
 13 14  2  0  0  0
 14 15  1  0  0  0
 14 31  1  0  0  0
 15 16  2  0  0  0
 15 32  1  0  0  0
 16 17  1  0  0  0
 16 33  1  0  0  0
 17 18  2  0  0  0
 17 34  1  0  0  0
 18 35  1  0  0  0
M  END
$$$$
227
                    3D
 Schrodinger Suite 2021-2.
 36 36  0  0  1  0            999 V2000
   -4.7387    2.9084   -1.5144 C   0  0  0  0  0  0
   -4.2422    1.7776   -0.6107 C   0  0  0  0  0  0
   -2.8261    1.7379   -0.6575 O   0  0  0  0  0  0
   -2.2820    0.7086    0.1530 C   0  0  0  0  0  0
   -0.7573    0.7615    0.0666 C   0  0  0  0  0  0
   -0.1718    1.8442    0.0981 O   0  0  0  0  0  0
   -0.1237   -0.4165   -0.0399 N   0  0  0  0  0  0
    1.3233   -0.5892   -0.1226 C   0  0  0  0  0  0
    1.8671   -0.2873   -1.5338 C   0  0  2  0  0  0
    1.4865   -1.3404   -2.3981 O   0  0  0  0  0  0
    3.3772   -0.1041   -1.5061 C   0  0  0  0  0  0
    3.9291    1.1912   -1.5918 C   0  0  0  0  0  0
    5.3248    1.3701   -1.5571 C   0  0  0  0  0  0
    6.1765    0.2562   -1.4312 C   0  0  0  0  0  0
    5.6372   -1.0449   -1.3340 C   0  0  0  0  0  0
    6.5503   -2.2550   -1.2033 C   0  0  0  0  0  0
    5.9972   -3.1760   -0.4135 F   0  0  0  0  0  0
    6.7484   -2.7862   -2.4090 F   0  0  0  0  0  0
    7.7313   -1.9164   -0.6847 F   0  0  0  0  0  0
    4.2367   -1.2175   -1.3765 C   0  0  0  0  0  0
   -5.8269    2.9695   -1.4994 H   0  0  0  0  0  0
   -4.3453    3.8713   -1.1885 H   0  0  0  0  0  0
   -4.4263    2.7496   -2.5469 H   0  0  0  0  0  0
   -4.5797    1.9449    0.4131 H   0  0  0  0  0  0
   -4.6570    0.8255   -0.9449 H   0  0  0  0  0  0
   -2.5809    0.8432    1.1935 H   0  0  0  0  0  0
   -2.6476   -0.2651   -0.1786 H   0  0  0  0  0  0
   -0.6840   -1.2560   -0.0674 H   0  0  0  0  0  0
    1.7884    0.0803    0.6035 H   0  0  0  0  0  0
    1.5875   -1.6008    0.1880 H   0  0  0  0  0  0
    1.4202    0.6307   -1.9178 H   0  0  0  0  0  0
    1.7420   -1.1114   -3.2786 H   0  0  0  0  0  0
    3.2842    2.0531   -1.6837 H   0  0  0  0  0  0
    5.7429    2.3635   -1.6264 H   0  0  0  0  0  0
    7.2456    0.4079   -1.4096 H   0  0  0  0  0  0
    3.8189   -2.2113   -1.3072 H   0  0  0  0  0  0
  1  2  1  0  0  0
  1 21  1  0  0  0
  1 22  1  0  0  0
  1 23  1  0  0  0
  2  3  1  0  0  0
  2 24  1  0  0  0
  2 25  1  0  0  0
  3  4  1  0  0  0
  4  5  1  0  0  0
  4 26  1  0  0  0
  4 27  1  0  0  0
  5  6  2  0  0  0
  5  7  1  0  0  0
  7  8  1  0  0  0
  7 28  1  0  0  0
  8  9  1  0  0  0
  8 29  1  0  0  0
  8 30  1  0  0  0
  9 10  1  0  0  0
  9 11  1  0  0  0
  9 31  1  0  0  0
 10 32  1  0  0  0
 11 20  1  0  0  0
 11 12  2  0  0  0
 12 13  1  0  0  0
 12 33  1  0  0  0
 13 14  2  0  0  0
 13 34  1  0  0  0
 14 15  1  0  0  0
 14 35  1  0  0  0
 15 16  1  0  0  0
 15 20  2  0  0  0
 16 17  1  0  0  0
 16 18  1  0  0  0
 16 19  1  0  0  0
 20 36  1  0  0  0
M  END
$$$$
228
                    3D
 Schrodinger Suite 2021-2.
 41 42  0  0  1  0            999 V2000
   -2.7291    3.3417    0.6356 C   0  0  0  0  0  0
   -2.4476    1.5762    0.2061 S   0  0  0  0  0  0
   -3.0503    0.7362    1.2520 O   0  0  0  0  0  0
   -2.8284    1.3686   -1.1993 O   0  0  0  0  0  0
   -0.6171    1.4396    0.3363 C   0  0  0  0  0  0
   -0.1559    0.0126   -0.0055 C   0  0  0  0  0  0
    1.3695   -0.1789    0.0678 C   0  0  0  0  0  0
    2.0769    0.7671    0.4208 O   0  0  0  0  0  0
    1.8862   -1.3861   -0.2687 N   0  0  0  0  0  0
    3.3255   -1.6487   -0.1143 C   0  0  0  0  0  0
    4.1350   -1.1015   -1.3041 C   0  0  0  0  0  0
    5.6109   -1.4264   -1.1846 C   0  0  0  0  0  0
    6.1066   -2.6499   -1.6819 C   0  0  0  0  0  0
    7.4766   -2.9563   -1.5678 C   0  0  0  0  0  0
    8.3546   -2.0411   -0.9553 C   0  0  0  0  0  0
    7.8626   -0.8195   -0.4557 C   0  0  0  0  0  0
    8.7067    0.0591    0.1353 F   0  0  0  0  0  0
    6.4925   -0.5123   -0.5699 C   0  0  0  0  0  0
    1.0584   -2.5203   -0.5914 C   0  0  0  0  0  0
    1.5440   -3.6189   -1.5224 C   0  0  0  0  0  0
    0.5031   -2.6388   -1.9956 C   0  0  0  0  0  0
   -3.7960    3.5592    0.5899 H   0  0  0  0  0  0
   -2.3637    3.5354    1.6438 H   0  0  0  0  0  0
   -2.2000    3.9792   -0.0725 H   0  0  0  0  0  0
   -0.1747    2.1670   -0.3450 H   0  0  0  0  0  0
   -0.3295    1.7125    1.3522 H   0  0  0  0  0  0
   -0.6335   -0.6914    0.6768 H   0  0  0  0  0  0
   -0.4956   -0.2348   -1.0112 H   0  0  0  0  0  0
    3.6905   -1.2068    0.8148 H   0  0  0  0  0  0
    3.5079   -2.7176    0.0006 H   0  0  0  0  0  0
    3.7578   -1.5139   -2.2405 H   0  0  0  0  0  0
    4.0164   -0.0200   -1.3810 H   0  0  0  0  0  0
    5.4369   -3.3567   -2.1502 H   0  0  0  0  0  0
    7.8534   -3.8939   -1.9488 H   0  0  0  0  0  0
    9.4051   -2.2762   -0.8675 H   0  0  0  0  0  0
    6.1209    0.4251   -0.1827 H   0  0  0  0  0  0
    0.4081   -2.8622    0.2124 H   0  0  0  0  0  0
    2.5277   -3.5420   -1.9797 H   0  0  0  0  0  0
    1.2137   -4.6338   -1.3112 H   0  0  0  0  0  0
   -0.5183   -2.9983   -2.1008 H   0  0  0  0  0  0
    0.8130   -1.8963   -2.7288 H   0  0  0  0  0  0
  1  2  1  0  0  0
  1 22  1  0  0  0
  1 23  1  0  0  0
  1 24  1  0  0  0
  2  3  2  0  0  0
  2  4  2  0  0  0
  2  5  1  0  0  0
  5  6  1  0  0  0
  5 25  1  0  0  0
  5 26  1  0  0  0
  6  7  1  0  0  0
  6 27  1  0  0  0
  6 28  1  0  0  0
  7  8  2  0  0  0
  7  9  1  0  0  0
  9 10  1  0  0  0
  9 19  1  0  0  0
 10 11  1  0  0  0
 10 29  1  0  0  0
 10 30  1  0  0  0
 11 12  1  0  0  0
 11 31  1  0  0  0
 11 32  1  0  0  0
 12 18  1  0  0  0
 12 13  2  0  0  0
 13 14  1  0  0  0
 13 33  1  0  0  0
 14 15  2  0  0  0
 14 34  1  0  0  0
 15 16  1  0  0  0
 15 35  1  0  0  0
 16 17  1  0  0  0
 16 18  2  0  0  0
 18 36  1  0  0  0
 19 21  1  0  0  0
 19 20  1  0  0  0
 19 37  1  0  0  0
 20 21  1  0  0  0
 20 38  1  0  0  0
 20 39  1  0  0  0
 21 40  1  0  0  0
 21 41  1  0  0  0
M  END
$$$$
229
                    3D
 Schrodinger Suite 2021-2.
 37 37  0  0  1  0            999 V2000
   -2.6223   -2.3630    0.5598 C   0  0  0  0  0  0
   -2.1971   -1.0042   -0.0016 C   0  0  0  0  0  0
   -0.7918   -0.8671    0.1242 O   0  0  0  0  0  0
   -0.1946    0.2789   -0.2533 C   0  0  0  0  0  0
   -0.7774    1.2597   -0.7176 O   0  0  0  0  0  0
    1.3305    0.2437   -0.0481 C   0  0  0  0  0  0
    1.6344    0.3525    1.4566 C   0  0  0  0  0  0
    2.0279    1.3946    1.9805 O   0  0  0  0  0  0
    1.4248   -0.8067    2.1070 O   0  0  0  0  0  0
    1.6567   -0.8825    3.5033 C   0  0  0  0  0  0
    1.3274   -2.2944    3.9931 C   0  0  0  0  0  0
    2.2795    1.4496   -1.1396 P   0  0  1  0  0  0
    2.1418    1.0617   -3.0588 S   0  0  0  0  0  0
    1.6039    3.4226   -0.6222 S   0  0  0  0  0  0
    4.0095    1.4074   -0.5461 C   0  0  0  0  0  0
    4.5977    0.1650   -0.2230 C   0  0  0  0  0  0
    5.9298    0.1004    0.2284 C   0  0  0  0  0  0
    6.6893    1.2789    0.3505 C   0  0  0  0  0  0
    6.1165    2.5198    0.0140 C   0  0  0  0  0  0
    4.7838    2.5839   -0.4372 C   0  0  0  0  0  0
   -3.7003   -2.4982    0.4720 H   0  0  0  0  0  0
   -2.1383   -3.1782    0.0215 H   0  0  0  0  0  0
   -2.3584   -2.4518    1.6139 H   0  0  0  0  0  0
   -2.4834   -0.9247   -1.0512 H   0  0  0  0  0  0
   -2.7002   -0.2021    0.5402 H   0  0  0  0  0  0
    1.6584   -0.7483   -0.3604 H   0  0  0  0  0  0
    2.6990   -0.6441    3.7193 H   0  0  0  0  0  0
    1.0356   -0.1515    4.0229 H   0  0  0  0  0  0
    1.4965   -2.3811    5.0664 H   0  0  0  0  0  0
    0.2844   -2.5442    3.7972 H   0  0  0  0  0  0
    1.9510   -3.0374    3.4954 H   0  0  0  0  0  0
    2.1958    3.5174    0.5911 H   0  0  0  0  0  0
    4.0274   -0.7469   -0.3195 H   0  0  0  0  0  0
    6.3694   -0.8540    0.4782 H   0  0  0  0  0  0
    7.7118    1.2304    0.6952 H   0  0  0  0  0  0
    6.7011    3.4242    0.0975 H   0  0  0  0  0  0
    4.3714    3.5443   -0.7044 H   0  0  0  0  0  0
  1  2  1  0  0  0
  1 21  1  0  0  0
  1 22  1  0  0  0
  1 23  1  0  0  0
  2  3  1  0  0  0
  2 24  1  0  0  0
  2 25  1  0  0  0
  3  4  1  0  0  0
  4  5  2  0  0  0
  4  6  1  0  0  0
  6  7  1  0  0  0
  6 12  1  0  0  0
  6 26  1  0  0  0
  7  8  2  0  0  0
  7  9  1  0  0  0
  9 10  1  0  0  0
 10 11  1  0  0  0
 10 27  1  0  0  0
 10 28  1  0  0  0
 11 29  1  0  0  0
 11 30  1  0  0  0
 11 31  1  0  0  0
 12 13  2  0  0  0
 12 14  1  0  0  0
 12 15  1  0  0  0
 14 32  1  0  0  0
 15 20  1  0  0  0
 15 16  2  0  0  0
 16 17  1  0  0  0
 16 33  1  0  0  0
 17 18  2  0  0  0
 17 34  1  0  0  0
 18 19  1  0  0  0
 18 35  1  0  0  0
 19 20  2  0  0  0
 19 36  1  0  0  0
 20 37  1  0  0  0
M  END
$$$$
230
                    3D
 Schrodinger Suite 2021-2.
 41 41  0  0  1  0            999 V2000
   -0.1651   -0.2350    2.5922 C   0  0  0  0  0  0
    0.3919   -0.0997    1.2961 O   0  0  0  0  0  0
   -0.5382   -0.0525    0.2930 C   0  0  0  0  0  0
   -0.1849    0.0077   -1.0103 C   0  0  0  0  0  0
   -1.2204    0.0644   -2.0773 C   0  0  0  0  0  0
   -0.9505    0.0841   -3.2803 O   0  0  0  0  0  0
   -2.4829    0.0858   -1.5988 O   0  0  0  0  0  0
   -3.5782    0.1413   -2.4968 C   0  0  0  0  0  0
    1.2178    0.0083   -1.4273 C   0  0  0  0  0  0
    1.7772    1.2609   -2.0846 C   0  0  0  0  0  0
    2.0259   -1.0629   -1.2306 C   0  0  0  0  0  0
    1.5138   -2.2999   -0.6357 C   0  0  0  0  0  0
    2.1612   -3.0485    0.2782 C   0  0  0  0  0  0
    1.6796   -4.3006    0.8886 C   0  0  0  0  0  0
    0.3939   -4.8333    0.6304 C   0  0  0  0  0  0
   -0.0169   -6.0370    1.2360 C   0  0  0  0  0  0
    0.8521   -6.7242    2.1032 C   0  0  0  0  0  0
    2.1336   -6.2055    2.3644 C   0  0  0  0  0  0
    2.5428   -5.0014    1.7595 C   0  0  0  0  0  0
    3.3261   -0.9225   -1.6729 O   0  0  0  0  0  0
    4.1161   -2.0893   -1.8680 C   0  0  0  0  0  0
    0.6354   -0.2740    3.3307 H   0  0  0  0  0  0
   -0.8079    0.6119    2.8374 H   0  0  0  0  0  0
   -0.7449   -1.1554    2.6776 H   0  0  0  0  0  0
   -1.5565   -0.0650    0.6581 H   0  0  0  0  0  0
   -4.5145    0.1400   -1.9389 H   0  0  0  0  0  0
   -3.5414    1.0502   -3.0984 H   0  0  0  0  0  0
   -3.5785   -0.7209   -3.1648 H   0  0  0  0  0  0
    2.6704    1.6053   -1.5625 H   0  0  0  0  0  0
    2.0382    1.0595   -3.1240 H   0  0  0  0  0  0
    1.0497    2.0731   -2.0691 H   0  0  0  0  0  0
    0.5460   -2.6301   -0.9794 H   0  0  0  0  0  0
    3.1231   -2.7072    0.6291 H   0  0  0  0  0  0
   -0.2981   -4.3308   -0.0271 H   0  0  0  0  0  0
   -1.0014   -6.4330    1.0343 H   0  0  0  0  0  0
    0.5364   -7.6474    2.5667 H   0  0  0  0  0  0
    2.8040   -6.7312    3.0282 H   0  0  0  0  0  0
    3.5301   -4.6162    1.9691 H   0  0  0  0  0  0
    4.9112   -1.8554   -2.5756 H   0  0  0  0  0  0
    4.6000   -2.4070   -0.9455 H   0  0  0  0  0  0
    3.5476   -2.9190   -2.2908 H   0  0  0  0  0  0
  1  2  1  0  0  0
  1 22  1  0  0  0
  1 23  1  0  0  0
  1 24  1  0  0  0
  2  3  1  0  0  0
  3  4  2  0  0  0
  3 25  1  0  0  0
  4  5  1  0  0  0
  4  9  1  0  0  0
  5  6  2  0  0  0
  5  7  1  0  0  0
  7  8  1  0  0  0
  8 26  1  0  0  0
  8 27  1  0  0  0
  8 28  1  0  0  0
  9 10  1  0  0  0
  9 11  2  0  0  0
 10 29  1  0  0  0
 10 30  1  0  0  0
 10 31  1  0  0  0
 11 12  1  0  0  0
 11 20  1  0  0  0
 12 13  2  0  0  0
 12 32  1  0  0  0
 13 14  1  0  0  0
 13 33  1  0  0  0
 14 19  1  0  0  0
 14 15  2  0  0  0
 15 16  1  0  0  0
 15 34  1  0  0  0
 16 17  2  0  0  0
 16 35  1  0  0  0
 17 18  1  0  0  0
 17 36  1  0  0  0
 18 19  2  0  0  0
 18 37  1  0  0  0
 19 38  1  0  0  0
 20 21  1  0  0  0
 21 39  1  0  0  0
 21 40  1  0  0  0
 21 41  1  0  0  0
M  END
$$$$
231
                    3D
 Schrodinger Suite 2021-2.
 49 49  0  0  1  0            999 V2000
   -1.6828    5.3526    0.8790 C   0  0  0  0  0  0
   -1.7847    4.0135    0.1407 C   0  0  0  0  0  0
   -0.7901    2.9708    0.6704 C   0  0  0  0  0  0
   -0.8901    1.6310   -0.0740 C   0  0  0  0  0  0
    0.0969    0.6032    0.4534 C   0  0  0  0  0  0
   -0.2368   -0.0775    1.6969 C   0  0  0  0  0  0
   -0.6337   -1.3606    1.7918 C   0  0  0  0  0  0
   -0.8494   -2.3236    0.6340 C   0  0  0  0  0  0
    0.2542   -3.1991    0.4305 O   0  0  0  0  0  0
    0.4820   -4.1345    1.4354 C   0  0  2  0  0  0
    1.7723   -4.8903    1.0685 C   0  0  0  0  0  0
    2.0656   -5.9217    2.1644 C   0  0  0  0  0  0
    0.8593   -6.8512    2.3222 C   0  0  0  0  0  0
   -0.4082   -6.0156    2.5632 C   0  0  0  0  0  0
   -0.5648   -5.0595    1.5176 O   0  0  0  0  0  0
    1.2185    0.3446   -0.2636 C   0  0  0  0  0  0
    2.3061   -0.5920    0.1012 C   0  0  0  0  0  0
    2.4379   -1.1435    1.1955 O   0  0  0  0  0  0
    3.1670   -0.7374   -0.9254 O   0  0  0  0  0  0
    4.2901   -1.6027   -0.8166 C   0  0  0  0  0  0
    5.4733   -0.8911   -0.1470 C   0  0  0  0  0  0
   -2.4043    6.0687    0.4853 H   0  0  0  0  0  0
   -1.8814    5.2320    1.9442 H   0  0  0  0  0  0
   -0.6890    5.7876    0.7699 H   0  0  0  0  0  0
   -2.8013    3.6295    0.2323 H   0  0  0  0  0  0
   -1.6115    4.1770   -0.9235 H   0  0  0  0  0  0
    0.2251    3.3596    0.5805 H   0  0  0  0  0  0
   -0.9665    2.8125    1.7352 H   0  0  0  0  0  0
   -1.8977    1.2255    0.0287 H   0  0  0  0  0  0
   -0.7351    1.7862   -1.1426 H   0  0  0  0  0  0
   -0.1457    0.4864    2.6135 H   0  0  0  0  0  0
   -0.8254   -1.7652    2.7746 H   0  0  0  0  0  0
   -1.7694   -2.8861    0.7956 H   0  0  0  0  0  0
   -0.9966   -1.7622   -0.2883 H   0  0  0  0  0  0
    0.6013   -3.6239    2.3926 H   0  0  0  0  0  0
    1.6423   -5.3721    0.0983 H   0  0  0  0  0  0
    2.5918   -4.1761    0.9801 H   0  0  0  0  0  0
    2.9563   -6.4976    1.9124 H   0  0  0  0  0  0
    2.2742   -5.4156    3.1079 H   0  0  0  0  0  0
    0.7363   -7.4526    1.4206 H   0  0  0  0  0  0
    1.0189   -7.5468    3.1464 H   0  0  0  0  0  0
   -1.2854   -6.6623    2.5850 H   0  0  0  0  0  0
   -0.3629   -5.5087    3.5284 H   0  0  0  0  0  0
    1.3568    0.8766   -1.1941 H   0  0  0  0  0  0
    4.0284   -2.5124   -0.2741 H   0  0  0  0  0  0
    4.5757   -1.9124   -1.8220 H   0  0  0  0  0  0
    6.3442   -1.5455   -0.1076 H   0  0  0  0  0  0
    5.7545    0.0061   -0.6988 H   0  0  0  0  0  0
    5.2343   -0.5970    0.8753 H   0  0  0  0  0  0
  1  2  1  0  0  0
  1 22  1  0  0  0
  1 23  1  0  0  0
  1 24  1  0  0  0
  2  3  1  0  0  0
  2 25  1  0  0  0
  2 26  1  0  0  0
  3  4  1  0  0  0
  3 27  1  0  0  0
  3 28  1  0  0  0
  4  5  1  0  0  0
  4 29  1  0  0  0
  4 30  1  0  0  0
  5  6  1  0  0  0
  5 16  2  0  0  0
  6  7  2  0  0  0
  6 31  1  0  0  0
  7  8  1  0  0  0
  7 32  1  0  0  0
  8  9  1  0  0  0
  8 33  1  0  0  0
  8 34  1  0  0  0
  9 10  1  0  0  0
 10 15  1  0  0  0
 10 11  1  0  0  0
 10 35  1  0  0  0
 11 12  1  0  0  0
 11 36  1  0  0  0
 11 37  1  0  0  0
 12 13  1  0  0  0
 12 38  1  0  0  0
 12 39  1  0  0  0
 13 14  1  0  0  0
 13 40  1  0  0  0
 13 41  1  0  0  0
 14 15  1  0  0  0
 14 42  1  0  0  0
 14 43  1  0  0  0
 16 17  1  0  0  0
 16 44  1  0  0  0
 17 18  2  0  0  0
 17 19  1  0  0  0
 19 20  1  0  0  0
 20 21  1  0  0  0
 20 45  1  0  0  0
 20 46  1  0  0  0
 21 47  1  0  0  0
 21 48  1  0  0  0
 21 49  1  0  0  0
M  END
$$$$
232
                    3D
 Schrodinger Suite 2021-2.
 47 47  0  0  1  0            999 V2000
   -4.6915    4.5792   -0.0524 C   0  0  0  0  0  0
   -4.1897    3.1312   -0.0669 C   0  0  0  0  0  0
   -2.6575    3.0401   -0.0392 C   0  0  0  0  0  0
   -2.1504    1.5908   -0.0536 C   0  0  0  0  0  0
   -0.6173    1.5058   -0.0346 C   0  0  0  0  0  0
   -0.1043    0.0587   -0.0205 C   0  0  0  0  0  0
    1.4294   -0.0232    0.0008 C   0  0  0  0  0  0
    1.9404   -1.4704    0.0423 C   0  0  0  0  0  0
    3.4754   -1.5562    0.0720 C   0  0  0  0  0  0
    4.0136   -2.9968    0.0476 C   0  0  0  0  0  0
    3.7593   -3.7707    1.3527 C   0  0  0  0  0  0
    4.2822   -5.1457    1.3258 C   0  0  0  0  0  0
    4.6926   -6.2956    1.3013 C   0  0  0  0  0  0
    5.1157   -7.6604    1.2742 C   0  0  0  0  0  0
    4.5176   -8.6100    2.0373 C   0  0  0  0  0  0
    4.9165   -9.9302    2.0108 N   0  0  0  0  0  0
    5.9623  -10.3514    1.1871 C   0  0  0  0  0  0
    6.3227  -11.5252    1.1534 O   0  0  0  0  0  0
    6.5767   -9.3727    0.4038 N   0  0  0  0  0  0
    6.2276   -8.0156    0.3802 C   0  0  0  0  0  0
    6.8467   -7.2452   -0.3542 O   0  0  0  0  0  0
    4.4573  -10.6214    2.5866 H   0  0  0  0  0  0
    7.3340   -9.6668   -0.1957 H   0  0  0  0  0  0
   -5.7809    4.6134   -0.0742 H   0  0  0  0  0  0
   -4.3602    5.1024    0.8449 H   0  0  0  0  0  0
   -4.3239    5.1315   -0.9177 H   0  0  0  0  0  0
   -4.6050    2.5985    0.7895 H   0  0  0  0  0  0
   -4.5700    2.6290   -0.9571 H   0  0  0  0  0  0
   -2.2475    3.5762   -0.8961 H   0  0  0  0  0  0
   -2.2808    3.5467    0.8505 H   0  0  0  0  0  0
   -2.5547    1.0580    0.8080 H   0  0  0  0  0  0
   -2.5312    1.0808   -0.9393 H   0  0  0  0  0  0
   -0.2150    2.0258   -0.9051 H   0  0  0  0  0  0
   -0.2376    2.0316    0.8422 H   0  0  0  0  0  0
   -0.5067   -0.4587    0.8512 H   0  0  0  0  0  0
   -0.4843   -0.4701   -0.8955 H   0  0  0  0  0  0
    1.8312    0.4799   -0.8794 H   0  0  0  0  0  0
    1.8098    0.5190    0.8675 H   0  0  0  0  0  0
    1.5251   -1.9665    0.9193 H   0  0  0  0  0  0
    1.5641   -2.0118   -0.8266 H   0  0  0  0  0  0
    3.8720   -1.0246   -0.7938 H   0  0  0  0  0  0
    3.8614   -1.0348    0.9488 H   0  0  0  0  0  0
    3.5803   -3.5320   -0.7987 H   0  0  0  0  0  0
    5.0882   -2.9602   -0.1378 H   0  0  0  0  0  0
    4.2200   -3.2566    2.1968 H   0  0  0  0  0  0
    2.6921   -3.8413    1.5617 H   0  0  0  0  0  0
    3.6989   -8.3481    2.6934 H   0  0  0  0  0  0
  1  2  1  0  0  0
  1 24  1  0  0  0
  1 25  1  0  0  0
  1 26  1  0  0  0
  2  3  1  0  0  0
  2 27  1  0  0  0
  2 28  1  0  0  0
  3  4  1  0  0  0
  3 29  1  0  0  0
  3 30  1  0  0  0
  4  5  1  0  0  0
  4 31  1  0  0  0
  4 32  1  0  0  0
  5  6  1  0  0  0
  5 33  1  0  0  0
  5 34  1  0  0  0
  6  7  1  0  0  0
  6 35  1  0  0  0
  6 36  1  0  0  0
  7  8  1  0  0  0
  7 37  1  0  0  0
  7 38  1  0  0  0
  8  9  1  0  0  0
  8 39  1  0  0  0
  8 40  1  0  0  0
  9 10  1  0  0  0
  9 41  1  0  0  0
  9 42  1  0  0  0
 10 11  1  0  0  0
 10 43  1  0  0  0
 10 44  1  0  0  0
 11 12  1  0  0  0
 11 45  1  0  0  0
 11 46  1  0  0  0
 12 13  3  0  0  0
 13 14  1  0  0  0
 14 20  1  0  0  0
 14 15  2  0  0  0
 15 16  1  0  0  0
 15 47  1  0  0  0
 16 22  1  0  0  0
 16 17  1  0  0  0
 17 18  2  0  0  0
 17 19  1  0  0  0
 19 23  1  0  0  0
 19 20  1  0  0  0
 20 21  2  0  0  0
M  END
$$$$
233
                    3D
 Schrodinger Suite 2021-2.
 52 53  0  0  1  0            999 V2000
   -3.2681    3.0012   -1.6618 C   0  0  0  0  0  0
   -3.1783    2.4554   -0.2305 C   0  0  0  0  0  0
   -2.3537    1.1720   -0.1491 C   0  0  0  0  0  0
   -2.9606   -0.0343   -0.2171 C   0  0  0  0  0  0
   -4.4511   -0.2735   -0.3915 C   0  0  0  0  0  0
   -2.2239   -1.2153   -0.1418 N   0  0  0  0  0  0
   -0.8881   -1.2787    0.0063 C   0  0  0  0  0  0
   -0.3238   -2.3713    0.0537 O   0  0  0  0  0  0
   -0.2035    0.0203    0.1003 C   0  0  0  0  0  0
    1.1764   -0.0445    0.2681 N   0  0  0  0  0  0
    2.0694   -0.1907   -0.8739 C   0  0  0  0  0  0
    1.7967    0.0167    1.5882 C   0  0  0  0  0  0
    2.4234   -1.3206    2.0129 C   0  0  0  0  0  0
    3.0422   -1.2500    3.4149 C   0  0  0  0  0  0
    3.5972   -2.5013    3.7585 O   0  0  0  0  0  0
   -0.8934    1.1946    0.0269 C   0  0  0  0  0  0
   -0.1385    2.5265    0.1103 C   0  0  0  0  0  0
    0.2079    2.9837    1.5208 C   0  0  0  0  0  0
   -0.7027    2.8139    2.5874 C   0  0  0  0  0  0
   -0.3604    3.2340    3.8867 C   0  0  0  0  0  0
    0.8924    3.8277    4.1289 C   0  0  0  0  0  0
    1.8058    4.0057    3.0707 C   0  0  0  0  0  0
    3.1525    4.6452    3.3388 C   0  0  0  0  0  0
    1.4596    3.5869    1.7691 C   0  0  0  0  0  0
   -2.7413   -2.0796   -0.2087 H   0  0  0  0  0  0
   -3.8453    3.9255   -1.6875 H   0  0  0  0  0  0
   -2.2826    3.2140   -2.0753 H   0  0  0  0  0  0
   -3.7573    2.2871   -2.3243 H   0  0  0  0  0  0
   -2.7575    3.2125    0.4300 H   0  0  0  0  0  0
   -4.1830    2.2883    0.1564 H   0  0  0  0  0  0
   -4.8167    0.2322   -1.2853 H   0  0  0  0  0  0
   -4.6820   -1.3348   -0.4923 H   0  0  0  0  0  0
   -5.0007    0.1054    0.4703 H   0  0  0  0  0  0
    1.6356    0.2642   -1.7651 H   0  0  0  0  0  0
    3.0324    0.2869   -0.6911 H   0  0  0  0  0  0
    2.2439   -1.2462   -1.0835 H   0  0  0  0  0  0
    2.5528    0.8028    1.5906 H   0  0  0  0  0  0
    1.0481    0.3122    2.3248 H   0  0  0  0  0  0
    1.6620   -2.1013    1.9931 H   0  0  0  0  0  0
    3.1892   -1.6163    1.2949 H   0  0  0  0  0  0
    3.8245   -0.4915    3.4530 H   0  0  0  0  0  0
    2.2885   -0.9801    4.1550 H   0  0  0  0  0  0
    3.9723   -2.4373    4.6236 H   0  0  0  0  0  0
    0.7786    2.4465   -0.4742 H   0  0  0  0  0  0
   -0.6898    3.3270   -0.3776 H   0  0  0  0  0  0
   -1.6666    2.3573    2.4207 H   0  0  0  0  0  0
   -1.0597    3.0997    4.6986 H   0  0  0  0  0  0
    1.1502    4.1470    5.1281 H   0  0  0  0  0  0
    3.7854    4.6301    2.4510 H   0  0  0  0  0  0
    3.0224    5.6826    3.6478 H   0  0  0  0  0  0
    3.6721    4.1122    4.1354 H   0  0  0  0  0  0
    2.1604    3.7215    0.9581 H   0  0  0  0  0  0
  1  2  1  0  0  0
  1 26  1  0  0  0
  1 27  1  0  0  0
  1 28  1  0  0  0
  2  3  1  0  0  0
  2 29  1  0  0  0
  2 30  1  0  0  0
  3 16  1  0  0  0
  3  4  2  0  0  0
  4  5  1  0  0  0
  4  6  1  0  0  0
  5 31  1  0  0  0
  5 32  1  0  0  0
  5 33  1  0  0  0
  6 25  1  0  0  0
  6  7  1  0  0  0
  7  8  2  0  0  0
  7  9  1  0  0  0
  9 10  1  0  0  0
  9 16  2  0  0  0
 10 11  1  0  0  0
 10 12  1  0  0  0
 11 34  1  0  0  0
 11 35  1  0  0  0
 11 36  1  0  0  0
 12 13  1  0  0  0
 12 37  1  0  0  0
 12 38  1  0  0  0
 13 14  1  0  0  0
 13 39  1  0  0  0
 13 40  1  0  0  0
 14 15  1  0  0  0
 14 41  1  0  0  0
 14 42  1  0  0  0
 15 43  1  0  0  0
 16 17  1  0  0  0
 17 18  1  0  0  0
 17 44  1  0  0  0
 17 45  1  0  0  0
 18 24  1  0  0  0
 18 19  2  0  0  0
 19 20  1  0  0  0
 19 46  1  0  0  0
 20 21  2  0  0  0
 20 47  1  0  0  0
 21 22  1  0  0  0
 21 48  1  0  0  0
 22 23  1  0  0  0
 22 24  2  0  0  0
 23 49  1  0  0  0
 23 50  1  0  0  0
 23 51  1  0  0  0
 24 52  1  0  0  0
M  END
$$$$
234
                    3D
 Schrodinger Suite 2021-2.
 39 40  0  0  1  0            999 V2000
    0.6244    0.2409   -4.7509 C   0  0  0  0  0  0
   -0.0036    1.5146   -4.7999 O   0  0  0  0  0  0
   -0.4362    2.0740   -3.6161 C   0  0  0  0  0  0
   -1.0252    3.3506   -3.6908 C   0  0  0  0  0  0
   -1.4855    3.9980   -2.5306 C   0  0  0  0  0  0
   -1.3627    3.3736   -1.2738 C   0  0  0  0  0  0
   -1.8237    4.0408   -0.1213 C   0  0  0  0  0  0
   -1.7035    3.4330    1.1402 C   0  0  0  0  0  0
   -1.1255    2.1562    1.2523 C   0  0  0  0  0  0
   -0.6622    1.4718    0.1079 C   0  0  0  0  0  0
   -0.0461    0.0911    0.2943 C   0  0  0  0  0  0
    1.4923    0.1282    0.2680 C   0  0  0  0  0  0
    2.0608   -1.2121    0.3431 N   0  0  0  0  0  0
    2.1922   -2.0477   -0.6992 C   0  0  0  0  0  0
    1.8314   -1.7618   -1.8417 O   0  0  0  0  0  0
    2.8196   -3.4124   -0.3990 C   0  0  0  0  0  0
    3.6627   -3.9546   -1.5660 C   0  0  0  0  0  0
    4.2417   -5.1903   -1.2040 O   0  0  0  0  0  0
   -0.7775    2.0841   -1.1709 C   0  0  0  0  0  0
   -0.3204    1.4468   -2.3505 C   0  0  0  0  0  0
    0.9273   -0.0498   -5.7565 H   0  0  0  0  0  0
    1.5214    0.2598   -4.1302 H   0  0  0  0  0  0
   -0.0567   -0.5252   -4.3780 H   0  0  0  0  0  0
   -1.1222    3.8404   -4.6486 H   0  0  0  0  0  0
   -1.9310    4.9791   -2.6110 H   0  0  0  0  0  0
   -2.2690    5.0221   -0.1991 H   0  0  0  0  0  0
   -2.0551    3.9465    2.0229 H   0  0  0  0  0  0
   -1.0384    1.7018    2.2282 H   0  0  0  0  0  0
   -0.3790   -0.3253    1.2460 H   0  0  0  0  0  0
   -0.4382   -0.5871   -0.4638 H   0  0  0  0  0  0
    1.8555    0.6288   -0.6307 H   0  0  0  0  0  0
    1.8644    0.7094    1.1121 H   0  0  0  0  0  0
    2.3797   -1.5242    1.2490 H   0  0  0  0  0  0
    3.4418   -3.3320    0.4938 H   0  0  0  0  0  0
    2.0178   -4.1120   -0.1606 H   0  0  0  0  0  0
    3.0501   -4.1056   -2.4558 H   0  0  0  0  0  0
    4.4578   -3.2559   -1.8294 H   0  0  0  0  0  0
    4.8137   -5.0508   -0.4648 H   0  0  0  0  0  0
    0.1282    0.4698   -2.2839 H   0  0  0  0  0  0
  1  2  1  0  0  0
  1 21  1  0  0  0
  1 22  1  0  0  0
  1 23  1  0  0  0
  2  3  1  0  0  0
  3 20  1  0  0  0
  3  4  2  0  0  0
  4  5  1  0  0  0
  4 24  1  0  0  0
  5  6  2  0  0  0
  5 25  1  0  0  0
  6 19  1  0  0  0
  6  7  1  0  0  0
  7  8  2  0  0  0
  7 26  1  0  0  0
  8  9  1  0  0  0
  8 27  1  0  0  0
  9 10  2  0  0  0
  9 28  1  0  0  0
 10 11  1  0  0  0
 10 19  1  0  0  0
 11 12  1  0  0  0
 11 29  1  0  0  0
 11 30  1  0  0  0
 12 13  1  0  0  0
 12 31  1  0  0  0
 12 32  1  0  0  0
 13 14  1  0  0  0
 13 33  1  0  0  0
 14 15  2  0  0  0
 14 16  1  0  0  0
 16 17  1  0  0  0
 16 34  1  0  0  0
 16 35  1  0  0  0
 17 18  1  0  0  0
 17 36  1  0  0  0
 17 37  1  0  0  0
 18 38  1  0  0  0
 19 20  2  0  0  0
 20 39  1  0  0  0
M  END
$$$$
235
                    3D
 Schrodinger Suite 2021-2.
 43 43  0  0  1  0            999 V2000
   -4.7296    4.3875   -0.0015 C   0  0  0  0  0  0
   -4.1696    2.9610   -0.0017 C   0  0  0  0  0  0
   -2.6345    2.9300   -0.0016 C   0  0  0  0  0  0
   -2.0743    1.5004    0.0035 C   0  0  0  0  0  0
   -0.5390    1.4673    0.0021 C   0  0  0  0  0  0
    0.0180    0.0367    0.0279 C   0  0  0  0  0  0
    1.5530   -0.0021    0.0078 C   0  0  0  0  0  0
    2.1036   -1.4343    0.0640 C   0  0  0  0  0  0
    3.6383   -1.4830   -0.0022 C   0  0  0  0  0  0
    4.1962   -2.9090    0.0958 C   0  0  0  0  0  0
    3.7920   -3.6613   -1.0371 O   0  0  0  0  0  0
    4.1370   -4.9613   -1.1453 C   0  0  0  0  0  0
    4.8247   -5.5591   -0.3151 O   0  0  0  0  0  0
    3.5922   -5.6004   -2.3754 C   0  0  0  0  0  0
    3.8585   -6.9650   -2.6458 C   0  0  0  0  0  0
    3.3775   -7.5882   -3.7451 N   0  0  0  0  0  0
    2.6238   -6.8429   -4.5823 C   0  0  0  0  0  0
    2.3540   -5.4831   -4.3238 C   0  0  0  0  0  0
    2.8350   -4.8610   -3.2251 N   0  0  0  0  0  0
   -5.8198    4.3767   -0.0017 H   0  0  0  0  0  0
   -4.4022    4.9386    0.8806 H   0  0  0  0  0  0
   -4.4020    4.9389   -0.8832 H   0  0  0  0  0  0
   -4.5468    2.4278    0.8716 H   0  0  0  0  0  0
   -4.5466    2.4278   -0.8751 H   0  0  0  0  0  0
   -2.2608    3.4632   -0.8766 H   0  0  0  0  0  0
   -2.2617    3.4683    0.8707 H   0  0  0  0  0  0
   -2.4474    0.9689    0.8798 H   0  0  0  0  0  0
   -2.4487    0.9609   -0.8675 H   0  0  0  0  0  0
   -0.1665    1.9871   -0.8815 H   0  0  0  0  0  0
   -0.1628    2.0175    0.8655 H   0  0  0  0  0  0
   -0.3463   -0.4773    0.9182 H   0  0  0  0  0  0
   -0.3685   -0.5177   -0.8283 H   0  0  0  0  0  0
    1.9154    0.4920   -0.8946 H   0  0  0  0  0  0
    1.9427    0.5693    0.8511 H   0  0  0  0  0  0
    1.7644   -1.9171    0.9812 H   0  0  0  0  0  0
    1.6850   -2.0123   -0.7607 H   0  0  0  0  0  0
    3.9860   -1.0179   -0.9255 H   0  0  0  0  0  0
    4.0508   -0.8893    0.8141 H   0  0  0  0  0  0
    5.2857   -2.8786    0.1402 H   0  0  0  0  0  0
    3.8446   -3.3891    1.0101 H   0  0  0  0  0  0
    4.4582   -7.5690   -1.9802 H   0  0  0  0  0  0
    2.2334   -7.3327   -5.4621 H   0  0  0  0  0  0
    1.7503   -4.8947   -4.9987 H   0  0  0  0  0  0
  1  2  1  0  0  0
  1 20  1  0  0  0
  1 21  1  0  0  0
  1 22  1  0  0  0
  2  3  1  0  0  0
  2 23  1  0  0  0
  2 24  1  0  0  0
  3  4  1  0  0  0
  3 25  1  0  0  0
  3 26  1  0  0  0
  4  5  1  0  0  0
  4 27  1  0  0  0
  4 28  1  0  0  0
  5  6  1  0  0  0
  5 29  1  0  0  0
  5 30  1  0  0  0
  6  7  1  0  0  0
  6 31  1  0  0  0
  6 32  1  0  0  0
  7  8  1  0  0  0
  7 33  1  0  0  0
  7 34  1  0  0  0
  8  9  1  0  0  0
  8 35  1  0  0  0
  8 36  1  0  0  0
  9 10  1  0  0  0
  9 37  1  0  0  0
  9 38  1  0  0  0
 10 11  1  0  0  0
 10 39  1  0  0  0
 10 40  1  0  0  0
 11 12  1  0  0  0
 12 13  2  0  0  0
 12 14  1  0  0  0
 14 19  1  0  0  0
 14 15  2  0  0  0
 15 16  1  0  0  0
 15 41  1  0  0  0
 16 17  2  0  0  0
 17 18  1  0  0  0
 17 42  1  0  0  0
 18 19  2  0  0  0
 18 43  1  0  0  0
M  END
$$$$
236
                    3D
 Schrodinger Suite 2021-2.
 44 45  0  0  1  0            999 V2000
   -1.9347    5.4100    2.4782 C   0  0  0  0  0  0
   -1.4707    4.0682    2.4556 O   0  0  0  0  0  0
   -1.2515    3.4787    1.2291 C   0  0  0  0  0  0
   -1.4687    4.1198   -0.0140 C   0  0  0  0  0  0
   -1.2167    3.4417   -1.2216 C   0  0  0  0  0  0
   -0.7412    2.1067   -1.2184 C   0  0  0  0  0  0
   -0.4686    1.3905   -2.3663 O   0  0  0  0  0  0
   -0.6793    2.0214   -3.6208 C   0  0  0  0  0  0
   -0.5267    1.4662    0.0244 C   0  0  0  0  0  0
   -0.0129    0.0372    0.0800 C   0  0  0  0  0  0
    1.5128   -0.0372   -0.0801 C   0  0  0  0  0  0
    2.0267   -1.4663   -0.0243 C   0  0  0  0  0  0
    2.2802   -2.1521   -1.2303 C   0  0  0  0  0  0
    2.7514   -3.4787   -1.2291 C   0  0  0  0  0  0
    2.9707   -4.0682   -2.4555 O   0  0  0  0  0  0
    3.4348   -5.4100   -2.4781 C   0  0  0  0  0  0
    2.9688   -4.1198    0.0139 C   0  0  0  0  0  0
    2.7167   -3.4417    1.2216 C   0  0  0  0  0  0
    2.2411   -2.1067    1.2184 C   0  0  0  0  0  0
    1.9686   -1.3906    2.3663 O   0  0  0  0  0  0
    2.1793   -2.0214    3.6208 C   0  0  0  0  0  0
   -0.7802    2.1521    1.2303 C   0  0  0  0  0  0
   -2.0545    5.7315    3.5126 H   0  0  0  0  0  0
   -1.2225    6.0861    2.0033 H   0  0  0  0  0  0
   -2.9052    5.5044    1.9891 H   0  0  0  0  0  0
   -1.8287    5.1358   -0.0696 H   0  0  0  0  0  0
   -1.3965    3.9742   -2.1429 H   0  0  0  0  0  0
   -0.4202    1.3270   -4.4199 H   0  0  0  0  0  0
   -1.7246    2.3027   -3.7553 H   0  0  0  0  0  0
   -0.0488    2.9042   -3.7343 H   0  0  0  0  0  0
   -0.3085   -0.4117    1.0293 H   0  0  0  0  0  0
   -0.5020   -0.5540   -0.6949 H   0  0  0  0  0  0
    1.8085    0.4116   -1.0293 H   0  0  0  0  0  0
    2.0020    0.5540    0.6950 H   0  0  0  0  0  0
    2.1086   -1.6554   -2.1742 H   0  0  0  0  0  0
    3.5545   -5.7315   -3.5126 H   0  0  0  0  0  0
    4.4052   -5.5044   -1.9891 H   0  0  0  0  0  0
    2.7225   -6.0861   -2.0033 H   0  0  0  0  0  0
    3.3287   -5.1358    0.0696 H   0  0  0  0  0  0
    2.8965   -3.9742    2.1429 H   0  0  0  0  0  0
    1.9202   -1.3270    4.4199 H   0  0  0  0  0  0
    1.5488   -2.9042    3.7343 H   0  0  0  0  0  0
    3.2246   -2.3027    3.7553 H   0  0  0  0  0  0
   -0.6086    1.6554    2.1742 H   0  0  0  0  0  0
  1  2  1  0  0  0
  1 23  1  0  0  0
  1 24  1  0  0  0
  1 25  1  0  0  0
  2  3  1  0  0  0
  3 22  1  0  0  0
  3  4  2  0  0  0
  4  5  1  0  0  0
  4 26  1  0  0  0
  5  6  2  0  0  0
  5 27  1  0  0  0
  6  7  1  0  0  0
  6  9  1  0  0  0
  7  8  1  0  0  0
  8 28  1  0  0  0
  8 29  1  0  0  0
  8 30  1  0  0  0
  9 10  1  0  0  0
  9 22  2  0  0  0
 10 11  1  0  0  0
 10 31  1  0  0  0
 10 32  1  0  0  0
 11 12  1  0  0  0
 11 33  1  0  0  0
 11 34  1  0  0  0
 12 19  1  0  0  0
 12 13  2  0  0  0
 13 14  1  0  0  0
 13 35  1  0  0  0
 14 15  1  0  0  0
 14 17  2  0  0  0
 15 16  1  0  0  0
 16 36  1  0  0  0
 16 37  1  0  0  0
 16 38  1  0  0  0
 17 18  1  0  0  0
 17 39  1  0  0  0
 18 19  2  0  0  0
 18 40  1  0  0  0
 19 20  1  0  0  0
 20 21  1  0  0  0
 21 41  1  0  0  0
 21 42  1  0  0  0
 21 43  1  0  0  0
 22 44  1  0  0  0
M  END
$$$$
237
                    3D
 Schrodinger Suite 2021-2.
 34 35  0  0  1  0            999 V2000
   -2.6875    3.7295   -1.0264 C   0  0  0  0  0  0
   -3.7381    3.0343    0.2765 S   0  0  0  0  0  0
   -3.6037    1.2900    0.1102 C   0  0  0  0  0  0
   -4.8165    0.5560   -0.0557 C   0  0  0  0  0  0
   -4.6155   -0.7925   -0.1809 C   0  0  0  0  0  0
   -2.9253   -1.1977   -0.0870 S   0  0  0  0  0  0
   -2.4867    0.4865    0.1129 C   0  0  0  0  0  0
   -1.0528    0.7911    0.3121 C   0  0  0  0  0  0
   -0.7079    1.7336    1.0246 O   0  0  0  0  0  0
   -0.1778    0.0227   -0.3569 N   0  0  0  0  0  0
    1.2712    0.1750   -0.3184 C   0  0  0  0  0  0
    1.8695   -0.4369    0.9610 C   0  0  0  0  0  0
    3.3146   -0.2535    1.0141 N   0  0  0  0  0  0
    4.2136   -1.0112    0.3683 C   0  0  0  0  0  0
    3.8985   -1.9625   -0.3482 O   0  0  0  0  0  0
    5.6302   -0.5951    0.5949 C   0  0  0  0  0  0
    6.6055   -0.7682   -0.5515 C   0  0  0  0  0  0
    6.6831   -1.6832    0.6445 C   0  0  0  0  0  0
   -2.7751    4.8157   -1.0377 H   0  0  0  0  0  0
   -1.6415    3.4727   -0.8637 H   0  0  0  0  0  0
   -2.9918    3.3474   -2.0006 H   0  0  0  0  0  0
   -5.7843    1.0353   -0.0794 H   0  0  0  0  0  0
   -5.3539   -1.5687   -0.3169 H   0  0  0  0  0  0
   -0.5435   -0.7202   -0.9350 H   0  0  0  0  0  0
    1.6830   -0.3179   -1.1995 H   0  0  0  0  0  0
    1.5371    1.2302   -0.4008 H   0  0  0  0  0  0
    1.4434    0.0414    1.8434 H   0  0  0  0  0  0
    1.6205   -1.4972    1.0327 H   0  0  0  0  0  0
    3.6563    0.5085    1.5816 H   0  0  0  0  0  0
    5.7871    0.2645    1.2450 H   0  0  0  0  0  0
    6.2417   -1.1942   -1.4849 H   0  0  0  0  0  0
    7.3747   -0.0069   -0.6637 H   0  0  0  0  0  0
    7.5053   -1.5426    1.3431 H   0  0  0  0  0  0
    6.3708   -2.7166    0.5050 H   0  0  0  0  0  0
  1  2  1  0  0  0
  1 19  1  0  0  0
  1 20  1  0  0  0
  1 21  1  0  0  0
  2  3  1  0  0  0
  3  7  2  0  0  0
  3  4  1  0  0  0
  4  5  2  0  0  0
  4 22  1  0  0  0
  5  6  1  0  0  0
  5 23  1  0  0  0
  6  7  1  0  0  0
  7  8  1  0  0  0
  8  9  2  0  0  0
  8 10  1  0  0  0
 10 11  1  0  0  0
 10 24  1  0  0  0
 11 12  1  0  0  0
 11 25  1  0  0  0
 11 26  1  0  0  0
 12 13  1  0  0  0
 12 27  1  0  0  0
 12 28  1  0  0  0
 13 14  1  0  0  0
 13 29  1  0  0  0
 14 15  2  0  0  0
 14 16  1  0  0  0
 16 18  1  0  0  0
 16 17  1  0  0  0
 16 30  1  0  0  0
 17 18  1  0  0  0
 17 31  1  0  0  0
 17 32  1  0  0  0
 18 33  1  0  0  0
 18 34  1  0  0  0
M  END
$$$$
238
                    3D
 Schrodinger Suite 2021-2.
 34 34  0  0  1  0            999 V2000
   -1.6330   -0.4008    2.8545 C   0  0  0  0  0  0
   -1.5827   -1.3117    1.6214 C   0  0  0  0  0  0
   -0.3337   -1.2011    0.9551 O   0  0  0  0  0  0
   -0.0380   -0.1795   -0.2861 P   0  0  1  0  0  0
   -1.0897    1.4791   -0.4128 S   0  0  0  0  0  0
    2.0436    0.2019    0.0189 S   0  0  0  0  0  0
    2.0576    0.8263    1.7278 C   0  0  2  0  0  0
    2.4838    2.3000    1.7395 C   0  0  0  0  0  0
    2.9688   -0.0305    2.6260 C   0  0  0  0  0  0
    2.4659   -1.4670    2.8259 C   0  0  0  0  0  0
   -0.3916   -1.1926   -1.6310 N   0  0  0  0  0  0
   -1.4490   -2.1772   -1.6416 C   0  0  0  0  0  0
   -1.3533   -2.7886   -3.0350 C   0  0  0  0  0  0
   -0.2806   -2.0815   -3.6291 O   0  0  0  0  0  0
    0.2828   -1.1621   -2.8385 C   0  0  0  0  0  0
    1.2222   -0.4402   -3.1663 O   0  0  0  0  0  0
   -2.5833   -0.5105    3.3771 H   0  0  0  0  0  0
   -0.8380   -0.6512    3.5562 H   0  0  0  0  0  0
   -1.5226    0.6498    2.5897 H   0  0  0  0  0  0
   -1.7122   -2.3501    1.9266 H   0  0  0  0  0  0
   -2.4053   -1.0824    0.9439 H   0  0  0  0  0  0
    1.0431    0.7728    2.1218 H   0  0  0  0  0  0
    2.4542    2.7107    2.7490 H   0  0  0  0  0  0
    3.4983    2.4223    1.3591 H   0  0  0  0  0  0
    1.8206    2.9042    1.1198 H   0  0  0  0  0  0
    3.9795   -0.0507    2.2167 H   0  0  0  0  0  0
    3.0493    0.4409    3.6062 H   0  0  0  0  0  0
    3.1257   -2.0155    3.4982 H   0  0  0  0  0  0
    1.4667   -1.4782    3.2609 H   0  0  0  0  0  0
    2.4277   -2.0157    1.8848 H   0  0  0  0  0  0
   -1.2896   -2.9278   -0.8672 H   0  0  0  0  0  0
   -2.4167   -1.7018   -1.4797 H   0  0  0  0  0  0
   -1.1287   -3.8546   -2.9943 H   0  0  0  0  0  0
   -2.2703   -2.6417   -3.6061 H   0  0  0  0  0  0
  1  2  1  0  0  0
  1 17  1  0  0  0
  1 18  1  0  0  0
  1 19  1  0  0  0
  2  3  1  0  0  0
  2 20  1  0  0  0
  2 21  1  0  0  0
  3  4  1  0  0  0
  4  5  2  0  0  0
  4  6  1  0  0  0
  4 11  1  0  0  0
  6  7  1  0  0  0
  7  8  1  0  0  0
  7  9  1  0  0  0
  7 22  1  0  0  0
  8 23  1  0  0  0
  8 24  1  0  0  0
  8 25  1  0  0  0
  9 10  1  0  0  0
  9 26  1  0  0  0
  9 27  1  0  0  0
 10 28  1  0  0  0
 10 29  1  0  0  0
 10 30  1  0  0  0
 11 15  1  0  0  0
 11 12  1  0  0  0
 12 13  1  0  0  0
 12 31  1  0  0  0
 12 32  1  0  0  0
 13 14  1  0  0  0
 13 33  1  0  0  0
 13 34  1  0  0  0
 14 15  1  0  0  0
 15 16  2  0  0  0
M  END
$$$$
239
                    3D
 Schrodinger Suite 2021-2.
 33 34  0  0  1  0            999 V2000
   -3.3852    3.1715   -0.5688 C   0  0  0  0  0  0
   -2.4543    2.7367    0.2935 C   0  0  0  0  0  0
   -1.9048    1.3275    0.3240 C   0  0  0  0  0  0
   -0.5004    1.3401    0.1352 O   0  0  0  0  0  0
    0.0636    0.0401    0.1652 C   0  0  0  0  0  0
    1.5316    0.2052   -0.0366 C   0  0  0  0  0  0
    2.5317    0.6791    0.7632 C   0  0  0  0  0  0
    3.7033    0.5516   -0.0359 C   0  0  0  0  0  0
    5.0788    0.9292    0.3120 C   0  0  0  0  0  0
    5.2769    2.1418    1.0073 C   0  0  0  0  0  0
    6.5686    2.5559    1.3765 C   0  0  0  0  0  0
    6.8148    4.1966    2.3083 Br  0  0  0  0  0  0
    7.6769    1.7544    1.0565 C   0  0  0  0  0  0
    7.4921    0.5388    0.3729 C   0  0  0  0  0  0
    6.1936    0.1072   -0.0040 C   0  0  0  0  0  0
    5.9594   -1.0899   -0.6511 O   0  0  0  0  0  0
    7.0679   -1.9141   -0.9811 C   0  0  0  0  0  0
    3.4138    0.0576   -1.2318 N   0  0  0  0  0  0
    2.0342   -0.1734   -1.2384 O   0  0  0  0  0  0
   -3.7365    4.1923   -0.5372 H   0  0  0  0  0  0
   -3.8083    2.5165   -1.3162 H   0  0  0  0  0  0
   -2.0543    3.4207    1.0276 H   0  0  0  0  0  0
   -2.1502    0.8812    1.2887 H   0  0  0  0  0  0
   -2.3834    0.7257   -0.4504 H   0  0  0  0  0  0
   -0.1320   -0.4423    1.1239 H   0  0  0  0  0  0
   -0.3646   -0.5843   -0.6205 H   0  0  0  0  0  0
    2.4388    1.0567    1.7705 H   0  0  0  0  0  0
    4.4315    2.7668    1.2560 H   0  0  0  0  0  0
    8.6709    2.0682    1.3396 H   0  0  0  0  0  0
    8.3699   -0.0499    0.1551 H   0  0  0  0  0  0
    6.7106   -2.8046   -1.4979 H   0  0  0  0  0  0
    7.7615   -1.4025   -1.6495 H   0  0  0  0  0  0
    7.6002   -2.2430   -0.0877 H   0  0  0  0  0  0
  1  2  2  0  0  0
  1 20  1  0  0  0
  1 21  1  0  0  0
  2  3  1  0  0  0
  2 22  1  0  0  0
  3  4  1  0  0  0
  3 23  1  0  0  0
  3 24  1  0  0  0
  4  5  1  0  0  0
  5  6  1  0  0  0
  5 25  1  0  0  0
  5 26  1  0  0  0
  6 19  1  0  0  0
  6  7  2  0  0  0
  7  8  1  0  0  0
  7 27  1  0  0  0
  8  9  1  0  0  0
  8 18  2  0  0  0
  9 15  1  0  0  0
  9 10  2  0  0  0
 10 11  1  0  0  0
 10 28  1  0  0  0
 11 12  1  0  0  0
 11 13  2  0  0  0
 13 14  1  0  0  0
 13 29  1  0  0  0
 14 15  2  0  0  0
 14 30  1  0  0  0
 15 16  1  0  0  0
 16 17  1  0  0  0
 17 31  1  0  0  0
 17 32  1  0  0  0
 17 33  1  0  0  0
 18 19  1  0  0  0
M  END
$$$$
240
                    3D
 Schrodinger Suite 2021-2.
 40 41  0  0  1  0            999 V2000
   -0.5124    3.7740   -1.2906 C   0  0  0  0  0  0
   -0.0995    2.2981   -1.2736 C   0  0  0  0  0  0
   -0.5523    1.5689    0.0012 C   0  0  0  0  0  0
   -0.1526    0.0875    0.0153 C   0  0  0  0  0  0
    1.2648   -0.0097    0.0553 O   0  0  0  0  0  0
    1.8355   -1.2637    0.0404 C   0  0  0  0  0  0
    3.2424   -1.3252    0.0346 C   0  0  0  0  0  0
    3.9113   -2.5637    0.0194 C   0  0  0  0  0  0
    3.1834   -3.7745    0.0118 C   0  0  0  0  0  0
    3.9202   -5.0712   -0.0006 C   0  0  0  0  0  0
    5.1508   -5.1503   -0.0297 O   0  0  0  0  0  0
    3.0953   -6.1450    0.0283 O   0  0  0  0  0  0
    3.6293   -7.4082    0.0300 C   0  0  0  0  0  0
    3.8686   -8.0880    1.2417 C   0  0  0  0  0  0
    4.3876   -9.3961    1.1954 C   0  0  0  0  0  0
    4.6354   -9.9759   -0.0670 C   0  0  0  0  0  0
    5.1927  -11.3793   -0.1815 C   0  0  0  0  0  0
    4.3944   -9.3381   -1.2340 N   0  0  0  0  0  0
    3.8967   -8.0837   -1.1797 C   0  0  0  0  0  0
    1.7693   -3.7154    0.0177 C   0  0  0  0  0  0
    1.1019   -2.4751    0.0317 C   0  0  0  0  0  0
   -0.1779    4.2589   -2.2079 H   0  0  0  0  0  0
   -1.5959    3.8817   -1.2333 H   0  0  0  0  0  0
   -0.0755    4.3150   -0.4508 H   0  0  0  0  0  0
   -0.5170    1.7988   -2.1484 H   0  0  0  0  0  0
    0.9846    2.2314   -1.3699 H   0  0  0  0  0  0
   -0.1389    2.0649    0.8804 H   0  0  0  0  0  0
   -1.6367    1.6424    0.0901 H   0  0  0  0  0  0
   -0.5819   -0.3942    0.8952 H   0  0  0  0  0  0
   -0.5491   -0.4117   -0.8702 H   0  0  0  0  0  0
    3.8172   -0.4106    0.0407 H   0  0  0  0  0  0
    4.9917   -2.5705    0.0152 H   0  0  0  0  0  0
    3.6618   -7.6135    2.1897 H   0  0  0  0  0  0
    4.5873   -9.9388    2.1077 H   0  0  0  0  0  0
    5.3675  -11.8173    0.8015 H   0  0  0  0  0  0
    4.4956  -12.0213   -0.7206 H   0  0  0  0  0  0
    6.1396  -11.3687   -0.7221 H   0  0  0  0  0  0
    3.7081   -7.6034   -2.1286 H   0  0  0  0  0  0
    1.1717   -4.6151    0.0112 H   0  0  0  0  0  0
    0.0226   -2.4811    0.0368 H   0  0  0  0  0  0
  1  2  1  0  0  0
  1 22  1  0  0  0
  1 23  1  0  0  0
  1 24  1  0  0  0
  2  3  1  0  0  0
  2 25  1  0  0  0
  2 26  1  0  0  0
  3  4  1  0  0  0
  3 27  1  0  0  0
  3 28  1  0  0  0
  4  5  1  0  0  0
  4 29  1  0  0  0
  4 30  1  0  0  0
  5  6  1  0  0  0
  6 21  1  0  0  0
  6  7  2  0  0  0
  7  8  1  0  0  0
  7 31  1  0  0  0
  8  9  2  0  0  0
  8 32  1  0  0  0
  9 10  1  0  0  0
  9 20  1  0  0  0
 10 11  2  0  0  0
 10 12  1  0  0  0
 12 13  1  0  0  0
 13 19  1  0  0  0
 13 14  2  0  0  0
 14 15  1  0  0  0
 14 33  1  0  0  0
 15 16  2  0  0  0
 15 34  1  0  0  0
 16 17  1  0  0  0
 16 18  1  0  0  0
 17 35  1  0  0  0
 17 36  1  0  0  0
 17 37  1  0  0  0
 18 19  2  0  0  0
 19 38  1  0  0  0
 20 21  2  0  0  0
 20 39  1  0  0  0
 21 40  1  0  0  0
M  END
$$$$
241
                    3D
 Schrodinger Suite 2021-2.
 43 45  0  0  1  0            999 V2000
   -2.9815    1.3953   -0.9356 C   0  0  0  0  0  0
   -2.1567    0.8584   -0.0240 C   0  0  0  0  0  0
   -0.6755    1.1507    0.0708 C   0  0  0  0  0  0
    0.0679   -0.0511   -0.0728 O   0  0  0  0  0  0
    1.4492   -0.0048   -0.0389 C   0  0  0  0  0  0
    2.1516    1.2052    0.1922 C   0  0  0  0  0  0
    3.5533    1.2270    0.2392 C   0  0  0  0  0  0
    4.2774    0.0394    0.0654 C   0  0  0  0  0  0
    3.6074   -1.1829   -0.1613 C   0  0  0  0  0  0
    2.1861   -1.2129   -0.2274 C   0  0  0  0  0  0
    1.4810   -2.5082   -0.5138 C   0  0  0  0  0  0
    0.3240   -2.5382   -0.9345 O   0  0  0  0  0  0
    2.2702   -3.7643   -0.2773 C   0  0  0  0  0  0
    1.6148   -5.0242   -0.1356 C   0  0  0  0  0  0
    0.2330   -5.0666   -0.1627 O   0  0  0  0  0  0
   -0.4309   -6.3139   -0.0154 C   0  0  0  0  0  0
   -1.9298   -6.1125   -0.0528 C   0  0  0  0  0  0
   -2.7526   -6.6819   -0.9462 C   0  0  0  0  0  0
    2.3958   -6.1943    0.0421 C   0  0  0  0  0  0
    3.7977   -6.1301    0.0875 C   0  0  0  0  0  0
    4.6056   -7.3982    0.2757 C   0  0  0  0  0  0
    4.4402   -4.8880   -0.0369 C   0  0  0  0  0  0
    3.6903   -3.7041   -0.2123 C   0  0  0  0  0  0
    4.4273   -2.4151   -0.3202 C   0  0  0  0  0  0
    5.6476   -2.3714   -0.4869 O   0  0  0  0  0  0
   -4.0316    1.1436   -0.9490 H   0  0  0  0  0  0
   -2.6210    2.0910   -1.6793 H   0  0  0  0  0  0
   -2.5533    0.1657    0.7039 H   0  0  0  0  0  0
   -0.3971    1.8661   -0.7050 H   0  0  0  0  0  0
   -0.4817    1.6039    1.0438 H   0  0  0  0  0  0
    1.6376    2.1420    0.3418 H   0  0  0  0  0  0
    4.0738    2.1567    0.4161 H   0  0  0  0  0  0
    5.3562    0.0805    0.1164 H   0  0  0  0  0  0
   -0.1365   -6.9981   -0.8131 H   0  0  0  0  0  0
   -0.1763   -6.7702    0.9424 H   0  0  0  0  0  0
   -2.3413   -5.4601    0.7034 H   0  0  0  0  0  0
   -3.8161   -6.4957   -0.9171 H   0  0  0  0  0  0
   -2.3780   -7.3393   -1.7172 H   0  0  0  0  0  0
    1.9398   -7.1664    0.1492 H   0  0  0  0  0  0
    5.6700   -7.1830    0.3740 H   0  0  0  0  0  0
    4.2819   -7.9244    1.1741 H   0  0  0  0  0  0
    4.4696   -8.0618   -0.5786 H   0  0  0  0  0  0
    5.5193   -4.8518    0.0100 H   0  0  0  0  0  0
  1  2  2  0  0  0
  1 26  1  0  0  0
  1 27  1  0  0  0
  2  3  1  0  0  0
  2 28  1  0  0  0
  3  4  1  0  0  0
  3 29  1  0  0  0
  3 30  1  0  0  0
  4  5  1  0  0  0
  5 10  1  0  0  0
  5  6  2  0  0  0
  6  7  1  0  0  0
  6 31  1  0  0  0
  7  8  2  0  0  0
  7 32  1  0  0  0
  8  9  1  0  0  0
  8 33  1  0  0  0
  9 24  1  0  0  0
  9 10  2  0  0  0
 10 11  1  0  0  0
 11 12  2  0  0  0
 11 13  1  0  0  0
 13 23  2  0  0  0
 13 14  1  0  0  0
 14 15  1  0  0  0
 14 19  2  0  0  0
 15 16  1  0  0  0
 16 17  1  0  0  0
 16 34  1  0  0  0
 16 35  1  0  0  0
 17 18  2  0  0  0
 17 36  1  0  0  0
 18 37  1  0  0  0
 18 38  1  0  0  0
 19 20  1  0  0  0
 19 39  1  0  0  0
 20 21  1  0  0  0
 20 22  2  0  0  0
 21 40  1  0  0  0
 21 41  1  0  0  0
 21 42  1  0  0  0
 22 23  1  0  0  0
 22 43  1  0  0  0
 23 24  1  0  0  0
 24 25  2  0  0  0
M  END
$$$$
242
                    3D
 Schrodinger Suite 2021-2.
 41 42  0  0  1  0            999 V2000
   -1.1297    3.5599    1.4094 C   0  0  0  0  0  0
   -0.2888    2.2785    1.4018 C   0  0  0  0  0  0
   -0.6521    1.3442    0.2363 C   0  0  0  0  0  0
    0.0921   -0.0015    0.2605 C   0  0  0  0  0  0
    1.5999    0.1150   -0.0157 C   0  0  0  0  0  0
    2.2926   -1.2546   -0.0774 C   0  0  0  0  0  0
    3.8002   -1.1464   -0.3583 C   0  0  2  0  0  0
    4.4925   -2.5025   -0.5189 C   0  0  0  0  0  0
    5.5822   -2.4238    0.4290 N   0  0  0  0  0  0
    6.5134   -3.4789    0.6422 C   0  0  0  0  0  0
    6.5955   -4.0703    1.9243 C   0  0  0  0  0  0
    7.4893   -5.1297    2.1685 C   0  0  0  0  0  0
    8.3115   -5.6079    1.1326 C   0  0  0  0  0  0
    8.2432   -5.0221   -0.1452 C   0  0  0  0  0  0
    7.3524   -3.9584   -0.3981 C   0  0  0  0  0  0
    7.3502   -3.3866   -1.6716 N   0  0  0  0  0  0
    5.5315   -1.2661    1.1858 C   0  0  0  0  0  0
    6.2828   -0.9106    2.0925 O   0  0  0  0  0  0
    4.4869   -0.5600    0.7381 O   0  0  0  0  0  0
   -0.8465    4.2053    2.2411 H   0  0  0  0  0  0
   -0.9936    4.1262    0.4876 H   0  0  0  0  0  0
   -2.1915    3.3338    1.5112 H   0  0  0  0  0  0
    0.7656    2.5499    1.3482 H   0  0  0  0  0  0
   -0.4257    1.7550    2.3486 H   0  0  0  0  0  0
   -1.7237    1.1438    0.2704 H   0  0  0  0  0  0
   -0.4702    1.8485   -0.7136 H   0  0  0  0  0  0
   -0.0718   -0.4941    1.2198 H   0  0  0  0  0  0
   -0.3525   -0.6530   -0.4924 H   0  0  0  0  0  0
    1.7579    0.6416   -0.9577 H   0  0  0  0  0  0
    2.0706    0.7197    0.7596 H   0  0  0  0  0  0
    2.1300   -1.7946    0.8564 H   0  0  0  0  0  0
    1.8271   -1.8509   -0.8629 H   0  0  0  0  0  0
    3.9769   -0.5356   -1.2444 H   0  0  0  0  0  0
    3.8390   -3.3345   -0.2523 H   0  0  0  0  0  0
    4.8318   -2.6479   -1.5434 H   0  0  0  0  0  0
    5.9638   -3.7195    2.7274 H   0  0  0  0  0  0
    7.5415   -5.5770    3.1502 H   0  0  0  0  0  0
    8.9976   -6.4210    1.3185 H   0  0  0  0  0  0
    8.8859   -5.3905   -0.9317 H   0  0  0  0  0  0
    8.0542   -3.6398   -2.3498 H   0  0  0  0  0  0
    6.8468   -2.5286   -1.8458 H   0  0  0  0  0  0
  1  2  1  0  0  0
  1 20  1  0  0  0
  1 21  1  0  0  0
  1 22  1  0  0  0
  2  3  1  0  0  0
  2 23  1  0  0  0
  2 24  1  0  0  0
  3  4  1  0  0  0
  3 25  1  0  0  0
  3 26  1  0  0  0
  4  5  1  0  0  0
  4 27  1  0  0  0
  4 28  1  0  0  0
  5  6  1  0  0  0
  5 29  1  0  0  0
  5 30  1  0  0  0
  6  7  1  0  0  0
  6 31  1  0  0  0
  6 32  1  0  0  0
  7 19  1  0  0  0
  7  8  1  0  0  0
  7 33  1  0  0  0
  8  9  1  0  0  0
  8 34  1  0  0  0
  8 35  1  0  0  0
  9 10  1  0  0  0
  9 17  1  0  0  0
 10 15  1  0  0  0
 10 11  2  0  0  0
 11 12  1  0  0  0
 11 36  1  0  0  0
 12 13  2  0  0  0
 12 37  1  0  0  0
 13 14  1  0  0  0
 13 38  1  0  0  0
 14 15  2  0  0  0
 14 39  1  0  0  0
 15 16  1  0  0  0
 16 40  1  0  0  0
 16 41  1  0  0  0
 17 18  2  0  0  0
 17 19  1  0  0  0
M  END
$$$$
243
                    3D
 Schrodinger Suite 2021-2.
 44 44  0  0  1  0            999 V2000
   -3.6582    5.2633    0.2112 C   0  0  0  0  0  0
   -3.4668    3.7442    0.1400 C   0  0  0  0  0  0
   -1.9856    3.3328    0.2324 C   0  0  0  0  0  0
   -1.7558    1.8198    0.1459 C   0  0  0  0  0  0
   -2.6995    1.0381    0.0230 O   0  0  0  0  0  0
   -0.4782    1.4188    0.2112 N   0  0  0  0  0  0
   -0.0463    0.0303    0.1361 C   0  0  0  0  0  0
    1.4805   -0.0683    0.2513 C   0  0  0  0  0  0
    1.9804   -1.5207    0.1600 C   0  0  0  0  0  0
    3.5073   -1.6235    0.2105 C   0  0  0  0  0  0
    4.1481   -0.9707    1.0345 O   0  0  0  0  0  0
    4.0780   -2.4548   -0.6747 N   0  0  0  0  0  0
    5.5108   -2.6974   -0.7955 C   0  0  0  0  0  0
    5.9999   -3.7232    0.2392 C   0  0  0  0  0  0
    7.4811   -4.0144    0.0947 C   0  0  0  0  0  0
    8.4276   -3.2300    0.7867 C   0  0  0  0  0  0
    9.8038   -3.4966    0.6482 C   0  0  0  0  0  0
   10.2381   -4.5475   -0.1830 C   0  0  0  0  0  0
    9.2957   -5.3316   -0.8762 C   0  0  0  0  0  0
    7.9195   -5.0654   -0.7382 C   0  0  0  0  0  0
   -4.7146    5.5242    0.1459 H   0  0  0  0  0  0
   -3.2728    5.6658    1.1483 H   0  0  0  0  0  0
   -3.1411    5.7638   -0.6078 H   0  0  0  0  0  0
   -4.0321    3.2771    0.9477 H   0  0  0  0  0  0
   -3.8970    3.3767   -0.7929 H   0  0  0  0  0  0
   -1.4221    3.8117   -0.5694 H   0  0  0  0  0  0
   -1.5626    3.6923    1.1715 H   0  0  0  0  0  0
    0.2402    2.1205    0.3160 H   0  0  0  0  0  0
   -0.5202   -0.5413    0.9357 H   0  0  0  0  0  0
   -0.3787   -0.3994   -0.8102 H   0  0  0  0  0  0
    1.9418    0.5264   -0.5388 H   0  0  0  0  0  0
    1.7979    0.3737    1.1972 H   0  0  0  0  0  0
    1.5692   -2.1088    0.9812 H   0  0  0  0  0  0
    1.6151   -1.9755   -0.7621 H   0  0  0  0  0  0
    3.4759   -2.9530   -1.3141 H   0  0  0  0  0  0
    5.7059   -3.0651   -1.8032 H   0  0  0  0  0  0
    6.0611   -1.7602   -0.6954 H   0  0  0  0  0  0
    5.8085   -3.3622    1.2508 H   0  0  0  0  0  0
    5.4421   -4.6548    0.1355 H   0  0  0  0  0  0
    8.1007   -2.4208    1.4233 H   0  0  0  0  0  0
   10.5260   -2.8944    1.1793 H   0  0  0  0  0  0
   11.2934   -4.7513   -0.2894 H   0  0  0  0  0  0
    9.6284   -6.1367   -1.5147 H   0  0  0  0  0  0
    7.2018   -5.6688   -1.2749 H   0  0  0  0  0  0
  1  2  1  0  0  0
  1 21  1  0  0  0
  1 22  1  0  0  0
  1 23  1  0  0  0
  2  3  1  0  0  0
  2 24  1  0  0  0
  2 25  1  0  0  0
  3  4  1  0  0  0
  3 26  1  0  0  0
  3 27  1  0  0  0
  4  5  2  0  0  0
  4  6  1  0  0  0
  6  7  1  0  0  0
  6 28  1  0  0  0
  7  8  1  0  0  0
  7 29  1  0  0  0
  7 30  1  0  0  0
  8  9  1  0  0  0
  8 31  1  0  0  0
  8 32  1  0  0  0
  9 10  1  0  0  0
  9 33  1  0  0  0
  9 34  1  0  0  0
 10 11  2  0  0  0
 10 12  1  0  0  0
 12 13  1  0  0  0
 12 35  1  0  0  0
 13 14  1  0  0  0
 13 36  1  0  0  0
 13 37  1  0  0  0
 14 15  1  0  0  0
 14 38  1  0  0  0
 14 39  1  0  0  0
 15 20  1  0  0  0
 15 16  2  0  0  0
 16 17  1  0  0  0
 16 40  1  0  0  0
 17 18  2  0  0  0
 17 41  1  0  0  0
 18 19  1  0  0  0
 18 42  1  0  0  0
 19 20  2  0  0  0
 19 43  1  0  0  0
 20 44  1  0  0  0
M  END
$$$$
244
                    3D
 Schrodinger Suite 2021-2.
 43 44  0  0  1  0            999 V2000
   -2.8732    3.6450    0.7024 C   0  0  0  0  0  0
   -2.4745    2.4072    1.5218 C   0  0  0  0  0  0
   -2.0654    1.1705    0.6767 C   0  0  0  0  0  0
   -3.2051    0.6656   -0.2546 C   0  0  0  0  0  0
   -4.5263    0.2857    0.4367 C   0  0  0  0  0  0
   -0.7934    1.4335   -0.1407 C   0  0  0  0  0  0
   -0.0661    0.0833   -0.1820 C   0  0  1  0  0  0
    1.4648    0.1891   -0.2509 C   0  0  0  0  0  0
    1.9549    0.7864   -1.5750 C   0  0  0  0  0  0
    3.3727    0.8236   -1.5754 O   0  0  0  0  0  0
    4.0321    1.3760   -2.6135 C   0  0  0  0  0  0
    3.4697    1.8665   -3.5948 O   0  0  0  0  0  0
    5.5141    1.3360   -2.4497 C   0  0  0  0  0  0
    6.3365    1.9122   -3.4458 C   0  0  0  0  0  0
    7.7390    1.8933   -3.3179 C   0  0  0  0  0  0
    8.3366    1.2966   -2.1926 C   0  0  0  0  0  0
    7.5297    0.7178   -1.1957 C   0  0  0  0  0  0
    6.1267    0.7365   -1.3214 C   0  0  0  0  0  0
   -0.4717   -0.5216    1.0324 O   0  0  0  0  0  0
   -1.5616    0.0318    1.5717 C   0  0  0  0  0  0
   -2.0939   -0.3047    2.6282 O   0  0  0  0  0  0
   -3.1053    4.4815    1.3618 H   0  0  0  0  0  0
   -2.0694    3.9635    0.0386 H   0  0  0  0  0  0
   -3.7583    3.4576    0.0951 H   0  0  0  0  0  0
   -1.6508    2.6844    2.1819 H   0  0  0  0  0  0
   -3.2984    2.1518    2.1887 H   0  0  0  0  0  0
   -3.4150    1.4186   -1.0144 H   0  0  0  0  0  0
   -2.8598   -0.2060   -0.8127 H   0  0  0  0  0  0
   -5.2489   -0.0726   -0.2965 H   0  0  0  0  0  0
   -4.3892   -0.5096    1.1690 H   0  0  0  0  0  0
   -4.9772    1.1388    0.9429 H   0  0  0  0  0  0
   -0.9996    1.8114   -1.1427 H   0  0  0  0  0  0
   -0.1708    2.1776    0.3594 H   0  0  0  0  0  0
   -0.4431   -0.5240   -1.0058 H   0  0  0  0  0  0
    1.8345    0.7864    0.5837 H   0  0  0  0  0  0
    1.8952   -0.8057   -0.1300 H   0  0  0  0  0  0
    1.6024    0.1858   -2.4149 H   0  0  0  0  0  0
    1.5599    1.7953   -1.7015 H   0  0  0  0  0  0
    5.9007    2.3768   -4.3188 H   0  0  0  0  0  0
    8.3561    2.3379   -4.0847 H   0  0  0  0  0  0
    9.4121    1.2827   -2.0944 H   0  0  0  0  0  0
    7.9871    0.2584   -0.3319 H   0  0  0  0  0  0
    5.5371    0.2831   -0.5383 H   0  0  0  0  0  0
  1  2  1  0  0  0
  1 22  1  0  0  0
  1 23  1  0  0  0
  1 24  1  0  0  0
  2  3  1  0  0  0
  2 25  1  0  0  0
  2 26  1  0  0  0
  3 20  1  0  0  0
  3  4  1  0  0  0
  3  6  1  0  0  0
  4  5  1  0  0  0
  4 27  1  0  0  0
  4 28  1  0  0  0
  5 29  1  0  0  0
  5 30  1  0  0  0
  5 31  1  0  0  0
  6  7  1  0  0  0
  6 32  1  0  0  0
  6 33  1  0  0  0
  7  8  1  0  0  0
  7 19  1  0  0  0
  7 34  1  0  0  0
  8  9  1  0  0  0
  8 35  1  0  0  0
  8 36  1  0  0  0
  9 10  1  0  0  0
  9 37  1  0  0  0
  9 38  1  0  0  0
 10 11  1  0  0  0
 11 12  2  0  0  0
 11 13  1  0  0  0
 13 18  1  0  0  0
 13 14  2  0  0  0
 14 15  1  0  0  0
 14 39  1  0  0  0
 15 16  2  0  0  0
 15 40  1  0  0  0
 16 17  1  0  0  0
 16 41  1  0  0  0
 17 18  2  0  0  0
 17 42  1  0  0  0
 18 43  1  0  0  0
 19 20  1  0  0  0
 20 21  2  0  0  0
M  END
$$$$
245
                    3D
 Schrodinger Suite 2021-2.
 39 40  0  0  1  0            999 V2000
   -0.4615    2.5511    0.7743 C   0  0  0  0  0  0
   -0.7698    1.3728   -0.1652 C   0  0  0  0  0  0
   -2.2846    1.1255   -0.2331 C   0  0  0  0  0  0
   -0.0246    0.0843    0.2397 C   0  0  0  0  0  0
    1.5018    0.1691    0.0943 C   0  0  0  0  0  0
    2.0569   -1.1000    0.4121 O   0  0  0  0  0  0
    3.4269   -1.2439    0.3619 C   0  0  0  0  0  0
    3.9508   -2.5088    0.6956 C   0  0  0  0  0  0
    5.3387   -2.7447    0.6740 C   0  0  0  0  0  0
    6.2328   -1.7146    0.3160 C   0  0  0  0  0  0
    7.6756   -1.9933    0.3060 C   0  0  0  0  0  0
    8.5521   -1.1035   -0.0191 N   0  0  0  0  0  0
    9.8826   -1.4439    0.0005 N   0  0  0  0  0  0
   10.4456   -2.1396   -1.0127 C   0  0  0  0  0  0
    9.8527   -2.5749   -2.0011 O   0  0  0  0  0  0
   11.9362   -2.3583   -0.8395 C   0  0  0  0  0  0
   12.3663   -1.5215    0.6880 S   0  0  0  0  0  0
   10.7223   -0.9964    0.9812 C   0  0  0  0  0  0
   10.3425   -0.0704    2.3198 S   0  0  0  0  0  0
    5.7140   -0.4439   -0.0211 C   0  0  0  0  0  0
    4.3254   -0.2094    0.0005 C   0  0  0  0  0  0
   -0.7211    2.3139    1.8064 H   0  0  0  0  0  0
    0.5937    2.8219    0.7485 H   0  0  0  0  0  0
   -1.0256    3.4388    0.4868 H   0  0  0  0  0  0
   -0.4437    1.6507   -1.1684 H   0  0  0  0  0  0
   -2.6833    0.8391    0.7407 H   0  0  0  0  0  0
   -2.8154    2.0201   -0.5604 H   0  0  0  0  0  0
   -2.5229    0.3286   -0.9380 H   0  0  0  0  0  0
   -0.2795   -0.1837    1.2659 H   0  0  0  0  0  0
   -0.3780   -0.7387   -0.3829 H   0  0  0  0  0  0
    1.7608    0.4464   -0.9288 H   0  0  0  0  0  0
    1.9031    0.9262    0.7685 H   0  0  0  0  0  0
    3.2800   -3.3087    0.9731 H   0  0  0  0  0  0
    5.7100   -3.7252    0.9359 H   0  0  0  0  0  0
    8.0042   -2.9949    0.5890 H   0  0  0  0  0  0
   12.1638   -3.4221   -0.7689 H   0  0  0  0  0  0
   12.4884   -1.9314   -1.6768 H   0  0  0  0  0  0
    6.3725    0.3663   -0.2993 H   0  0  0  0  0  0
    3.9751    0.7764   -0.2646 H   0  0  0  0  0  0
  1  2  1  0  0  0
  1 22  1  0  0  0
  1 23  1  0  0  0
  1 24  1  0  0  0
  2  3  1  0  0  0
  2  4  1  0  0  0
  2 25  1  0  0  0
  3 26  1  0  0  0
  3 27  1  0  0  0
  3 28  1  0  0  0
  4  5  1  0  0  0
  4 29  1  0  0  0
  4 30  1  0  0  0
  5  6  1  0  0  0
  5 31  1  0  0  0
  5 32  1  0  0  0
  6  7  1  0  0  0
  7 21  1  0  0  0
  7  8  2  0  0  0
  8  9  1  0  0  0
  8 33  1  0  0  0
  9 10  2  0  0  0
  9 34  1  0  0  0
 10 11  1  0  0  0
 10 20  1  0  0  0
 11 12  2  0  0  0
 11 35  1  0  0  0
 12 13  1  0  0  0
 13 18  1  0  0  0
 13 14  1  0  0  0
 14 15  2  0  0  0
 14 16  1  0  0  0
 16 17  1  0  0  0
 16 36  1  0  0  0
 16 37  1  0  0  0
 17 18  1  0  0  0
 18 19  2  0  0  0
 20 21  2  0  0  0
 20 38  1  0  0  0
 21 39  1  0  0  0
M  END
$$$$
246
                    3D
 Schrodinger Suite 2021-2.
 31 31  0  0  1  0            999 V2000
   -1.9771    1.1934   -0.6730 O   0  0  0  0  0  0
   -0.7553    1.1154   -0.5504 C   0  0  0  0  0  0
   -0.1244   -0.2581   -0.2783 C   0  0  0  0  0  0
    1.3300   -0.2287   -0.1612 N   0  0  0  0  0  0
    2.0814   -1.3974    0.0399 C   0  0  0  0  0  0
    1.4745   -2.6647    0.2113 C   0  0  0  0  0  0
    2.2637   -3.8123    0.4130 C   0  0  0  0  0  0
    1.6734   -5.0199    0.5759 F   0  0  0  0  0  0
    3.6649   -3.7046    0.4492 C   0  0  0  0  0  0
    4.2771   -2.4492    0.2804 C   0  0  0  0  0  0
    3.4924   -1.2907    0.0658 C   0  0  0  0  0  0
    4.0608   -0.0447   -0.0867 O   0  0  0  0  0  0
    5.2256    0.0699   -0.7783 C   0  0  0  0  0  0
    5.2496    1.2504   -1.4427 F   0  0  0  0  0  0
    6.2832    0.0543    0.0696 F   0  0  0  0  0  0
    0.0531    2.1849   -0.6463 N   0  0  0  0  0  0
   -0.3821    3.5510   -0.9192 C   0  0  0  0  0  0
   -0.4479    3.8450   -2.4277 C   0  0  0  0  0  0
   -0.7826    5.1218   -2.6093 F   0  0  0  0  0  0
    0.7415    3.6315   -2.9914 F   0  0  0  0  0  0
   -1.3603    3.0777   -3.0243 F   0  0  0  0  0  0
   -0.5538   -0.6538    0.6431 H   0  0  0  0  0  0
   -0.4094   -0.9300   -1.0890 H   0  0  0  0  0  0
    1.8120    0.6474   -0.3009 H   0  0  0  0  0  0
    0.4011   -2.7786    0.1932 H   0  0  0  0  0  0
    4.2706   -4.5842    0.6102 H   0  0  0  0  0  0
    5.3541   -2.3851    0.3236 H   0  0  0  0  0  0
    5.3394   -0.7282   -1.5125 H   0  0  0  0  0  0
    1.0455    2.0400   -0.5344 H   0  0  0  0  0  0
   -1.3474    3.7481   -0.4497 H   0  0  0  0  0  0
    0.3310    4.2269   -0.4463 H   0  0  0  0  0  0
  1  2  2  0  0  0
  2  3  1  0  0  0
  2 16  1  0  0  0
  3  4  1  0  0  0
  3 22  1  0  0  0
  3 23  1  0  0  0
  4  5  1  0  0  0
  4 24  1  0  0  0
  5 11  1  0  0  0
  5  6  2  0  0  0
  6  7  1  0  0  0
  6 25  1  0  0  0
  7  8  1  0  0  0
  7  9  2  0  0  0
  9 10  1  0  0  0
  9 26  1  0  0  0
 10 11  2  0  0  0
 10 27  1  0  0  0
 11 12  1  0  0  0
 12 13  1  0  0  0
 13 14  1  0  0  0
 13 15  1  0  0  0
 13 28  1  0  0  0
 16 17  1  0  0  0
 16 29  1  0  0  0
 17 18  1  0  0  0
 17 30  1  0  0  0
 17 31  1  0  0  0
 18 19  1  0  0  0
 18 20  1  0  0  0
 18 21  1  0  0  0
M  END
$$$$
247
                    3D
 Schrodinger Suite 2021-2.
 43 43  0  0  1  0            999 V2000
   -2.0846   -2.3523    0.3806 C   0  0  0  0  0  0
   -1.5903   -1.4686    1.5108 C   0  0  0  0  0  0
   -1.9999   -1.7845    2.8680 C   0  0  0  0  0  0
   -1.1534   -1.8260    3.9160 C   0  0  0  0  0  0
   -1.6309   -2.1422    5.2510 C   0  0  0  0  0  0
   -0.6418   -2.1241    6.1474 N   0  0  0  0  0  0
   -2.7913   -2.4010    5.5660 O   0  0  0  0  0  0
   -0.7807   -0.4114    1.2887 C   0  0  0  0  0  0
   -0.2172    0.0472   -0.0480 C   0  0  1  0  0  0
   -0.7109    1.4654   -0.3855 C   0  0  0  0  0  0
    1.3206   -0.0448    0.0200 C   0  0  0  0  0  0
    1.9828    0.9792    0.1951 O   0  0  0  0  0  0
    1.9503   -1.3933   -0.0587 C   0  0  0  0  0  0
    3.1877   -1.6127    0.5825 C   0  0  0  0  0  0
    3.8187   -2.8697    0.5191 C   0  0  0  0  0  0
    3.2388   -3.9445   -0.1991 C   0  0  0  0  0  0
    3.8688   -5.2100   -0.2586 N   0  0  0  0  0  0
    3.1933   -6.3367   -0.8915 C   0  0  0  0  0  0
    5.1748   -5.4104    0.3587 C   0  0  0  0  0  0
    2.0097   -3.7066   -0.8621 C   0  0  0  0  0  0
    1.3787   -2.4495   -0.8008 C   0  0  0  0  0  0
   -0.5709   -0.6069   -0.8405 H   0  0  0  0  0  0
   -2.9119   -2.9788    0.7152 H   0  0  0  0  0  0
   -2.4429   -1.7573   -0.4595 H   0  0  0  0  0  0
   -1.2899   -3.0114    0.0346 H   0  0  0  0  0  0
   -3.0492   -1.9879    3.0290 H   0  0  0  0  0  0
   -0.1030   -1.6230    3.7584 H   0  0  0  0  0  0
   -0.8416   -2.3273    7.1162 H   0  0  0  0  0  0
    0.3008   -1.9098    5.8561 H   0  0  0  0  0  0
   -0.4724    0.1912    2.1319 H   0  0  0  0  0  0
   -0.4489    2.1827    0.3935 H   0  0  0  0  0  0
   -0.2855    1.8197   -1.3253 H   0  0  0  0  0  0
   -1.7957    1.4801   -0.4935 H   0  0  0  0  0  0
    3.6621   -0.8197    1.1425 H   0  0  0  0  0  0
    4.7573   -2.9841    1.0399 H   0  0  0  0  0  0
    2.2162   -6.5037   -0.4366 H   0  0  0  0  0  0
    3.0569   -6.1531   -1.9578 H   0  0  0  0  0  0
    3.7681   -7.2568   -0.7837 H   0  0  0  0  0  0
    5.9029   -4.7051   -0.0432 H   0  0  0  0  0  0
    5.1134   -5.2736    1.4387 H   0  0  0  0  0  0
    5.5534   -6.4155    0.1718 H   0  0  0  0  0  0
    1.5262   -4.4793   -1.4402 H   0  0  0  0  0  0
    0.4573   -2.3180   -1.3455 H   0  0  0  0  0  0
  1  2  1  0  0  0
  1 23  1  0  0  0
  1 24  1  0  0  0
  1 25  1  0  0  0
  2  3  1  0  0  0
  2  8  2  0  0  0
  3  4  2  0  0  0
  3 26  1  0  0  0
  4  5  1  0  0  0
  4 27  1  0  0  0
  5  6  1  0  0  0
  5  7  2  0  0  0
  6 28  1  0  0  0
  6 29  1  0  0  0
  8  9  1  0  0  0
  8 30  1  0  0  0
  9 22  1  0  0  0
  9 10  1  0  0  0
  9 11  1  0  0  0
 10 31  1  0  0  0
 10 32  1  0  0  0
 10 33  1  0  0  0
 11 12  2  0  0  0
 11 13  1  0  0  0
 13 21  1  0  0  0
 13 14  2  0  0  0
 14 15  1  0  0  0
 14 34  1  0  0  0
 15 16  2  0  0  0
 15 35  1  0  0  0
 16 17  1  0  0  0
 16 20  1  0  0  0
 17 18  1  0  0  0
 17 19  1  0  0  0
 18 36  1  0  0  0
 18 37  1  0  0  0
 18 38  1  0  0  0
 19 39  1  0  0  0
 19 40  1  0  0  0
 19 41  1  0  0  0
 20 21  2  0  0  0
 20 42  1  0  0  0
 21 43  1  0  0  0
M  END
$$$$
248
                    3D
 Schrodinger Suite 2021-2.
 40 41  0  0  1  0            999 V2000
   -1.3291    2.1897    0.4348 C   0  0  0  0  0  0
    0.0798    1.6134    0.6452 C   0  0  0  0  0  0
    0.0998    0.1384    0.6076 N   0  0  2  0  0  0
   -0.6823   -0.5371    1.6620 C   0  0  0  0  0  0
   -1.9366   -1.2238    1.0875 C   0  0  2  0  0  0
   -2.9486   -1.6155    2.1451 C   0  0  0  0  0  0
   -3.8077   -2.6432    1.4119 C   0  0  0  0  0  0
   -2.9644   -3.2273    0.4230 O   0  0  0  0  0  0
   -1.6963   -2.5824    0.4298 C   0  0  0  0  0  0
    1.5186   -0.6417   -0.0242 S   0  0  0  0  0  0
    2.6785    0.0566    0.5510 O   0  0  0  0  0  0
    1.3697   -2.0926    0.1690 O   0  0  0  0  0  0
    1.4445   -0.2679   -1.8381 C   0  0  0  0  0  0
    0.8211   -1.4196   -2.6132 C   0  0  0  0  0  0
    1.6315   -2.5203   -2.9672 C   0  0  0  0  0  0
    1.0909   -3.6067   -3.6805 C   0  0  0  0  0  0
   -0.2666   -3.5992   -4.0491 C   0  0  0  0  0  0
   -1.0803   -2.5037   -3.7054 C   0  0  0  0  0  0
   -0.5436   -1.4133   -2.9917 C   0  0  0  0  0  0
   -1.5872   -0.0967   -2.5900 Cl  0  0  0  0  0  0
   -1.2968    3.2790    0.4222 H   0  0  0  0  0  0
   -1.7528    1.8651   -0.5144 H   0  0  0  0  0  0
   -2.0172    1.8962    1.2272 H   0  0  0  0  0  0
    0.7395    2.0050   -0.1286 H   0  0  0  0  0  0
    0.4919    1.9525    1.5963 H   0  0  0  0  0  0
   -0.0537   -1.2544    2.1906 H   0  0  0  0  0  0
   -0.9797    0.1907    2.4177 H   0  0  0  0  0  0
   -2.4302   -0.5620    0.3743 H   0  0  0  0  0  0
   -2.4480   -2.0858    2.9927 H   0  0  0  0  0  0
   -3.5270   -0.7699    2.5184 H   0  0  0  0  0  0
   -4.2116   -3.3985    2.0865 H   0  0  0  0  0  0
   -4.6437   -2.1561    0.9088 H   0  0  0  0  0  0
   -1.2896   -2.5021   -0.5760 H   0  0  0  0  0  0
   -1.0092   -3.1852    1.0249 H   0  0  0  0  0  0
    0.9344    0.6789   -2.0043 H   0  0  0  0  0  0
    2.4693   -0.1331   -2.1844 H   0  0  0  0  0  0
    2.6738   -2.5376   -2.6841 H   0  0  0  0  0  0
    1.7176   -4.4461   -3.9429 H   0  0  0  0  0  0
   -0.6838   -4.4325   -4.5950 H   0  0  0  0  0  0
   -2.1224   -2.5016   -3.9894 H   0  0  0  0  0  0
  1  2  1  0  0  0
  1 21  1  0  0  0
  1 22  1  0  0  0
  1 23  1  0  0  0
  2  3  1  0  0  0
  2 24  1  0  0  0
  2 25  1  0  0  0
  3  4  1  0  0  0
  3 10  1  0  0  0
  4  5  1  0  0  0
  4 26  1  0  0  0
  4 27  1  0  0  0
  5  9  1  0  0  0
  5  6  1  0  0  0
  5 28  1  0  0  0
  6  7  1  0  0  0
  6 29  1  0  0  0
  6 30  1  0  0  0
  7  8  1  0  0  0
  7 31  1  0  0  0
  7 32  1  0  0  0
  8  9  1  0  0  0
  9 33  1  0  0  0
  9 34  1  0  0  0
 10 11  2  0  0  0
 10 12  2  0  0  0
 10 13  1  0  0  0
 13 14  1  0  0  0
 13 35  1  0  0  0
 13 36  1  0  0  0
 14 19  1  0  0  0
 14 15  2  0  0  0
 15 16  1  0  0  0
 15 37  1  0  0  0
 16 17  2  0  0  0
 16 38  1  0  0  0
 17 18  1  0  0  0
 17 39  1  0  0  0
 18 19  2  0  0  0
 18 40  1  0  0  0
 19 20  1  0  0  0
M  END
$$$$
249
                    3D
 Schrodinger Suite 2021-2.
 39 39  0  0  1  0            999 V2000
    3.0052    3.1384   -2.9114 C   0  0  0  0  0  0
    1.5025    3.3998   -2.7630 C   0  0  0  0  0  0
    0.9755    2.8950   -1.4367 C   0  0  0  0  0  0
    0.0144    1.9668   -1.3033 C   0  0  0  0  0  0
   -0.4891    1.4464    0.0277 C   0  0  0  0  0  0
   -0.1729   -0.0429    0.2094 C   0  0  0  0  0  0
    1.2357   -0.2152    0.2044 O   0  0  0  0  0  0
    1.7743   -1.4478    0.1739 C   0  0  0  0  0  0
    1.1093   -2.4852    0.2014 O   0  0  0  0  0  0
    3.2637   -1.4225    0.0971 C   0  0  0  0  0  0
    3.9781   -2.6400    0.0821 C   0  0  0  0  0  0
    5.3845   -2.6619    0.0056 C   0  0  0  0  0  0
    5.9865   -3.9025   -0.0028 O   0  0  0  0  0  0
    7.4035   -3.9626   -0.0779 C   0  0  0  0  0  0
    6.0887   -1.4339   -0.0577 C   0  0  0  0  0  0
    5.3924   -0.1999   -0.0456 C   0  0  0  0  0  0
    6.0017    1.0357   -0.1054 O   0  0  0  0  0  0
    7.4188    1.0841   -0.1816 C   0  0  0  0  0  0
    3.9863   -0.2083    0.0311 C   0  0  0  0  0  0
    3.3698    3.4998   -3.8729 H   0  0  0  0  0  0
    3.5724    3.6437   -2.1294 H   0  0  0  0  0  0
    3.2270    2.0725   -2.8501 H   0  0  0  0  0  0
    1.3021    4.4691   -2.8326 H   0  0  0  0  0  0
    0.9618    2.9226   -3.5812 H   0  0  0  0  0  0
    1.4269    3.3235   -0.5535 H   0  0  0  0  0  0
   -0.4390    1.5364   -2.1845 H   0  0  0  0  0  0
   -0.0486    2.0214    0.8433 H   0  0  0  0  0  0
   -1.5664    1.6055    0.0762 H   0  0  0  0  0  0
   -0.5822   -0.4049    1.1532 H   0  0  0  0  0  0
   -0.6289   -0.6241   -0.5935 H   0  0  0  0  0  0
    3.4490   -3.5811    0.1289 H   0  0  0  0  0  0
    7.7197   -5.0055   -0.0759 H   0  0  0  0  0  0
    7.7744   -3.5082   -0.9977 H   0  0  0  0  0  0
    7.8694   -3.4759    0.7801 H   0  0  0  0  0  0
    7.1651   -1.4385   -0.1162 H   0  0  0  0  0  0
    7.7411    2.1245   -0.2192 H   0  0  0  0  0  0
    7.8815    0.6276    0.6945 H   0  0  0  0  0  0
    7.7864    0.5925   -1.0833 H   0  0  0  0  0  0
    3.4745    0.7433    0.0360 H   0  0  0  0  0  0
  1  2  1  0  0  0
  1 20  1  0  0  0
  1 21  1  0  0  0
  1 22  1  0  0  0
  2  3  1  0  0  0
  2 23  1  0  0  0
  2 24  1  0  0  0
  3  4  2  0  0  0
  3 25  1  0  0  0
  4  5  1  0  0  0
  4 26  1  0  0  0
  5  6  1  0  0  0
  5 27  1  0  0  0
  5 28  1  0  0  0
  6  7  1  0  0  0
  6 29  1  0  0  0
  6 30  1  0  0  0
  7  8  1  0  0  0
  8  9  2  0  0  0
  8 10  1  0  0  0
 10 19  1  0  0  0
 10 11  2  0  0  0
 11 12  1  0  0  0
 11 31  1  0  0  0
 12 13  1  0  0  0
 12 15  2  0  0  0
 13 14  1  0  0  0
 14 32  1  0  0  0
 14 33  1  0  0  0
 14 34  1  0  0  0
 15 16  1  0  0  0
 15 35  1  0  0  0
 16 17  1  0  0  0
 16 19  2  0  0  0
 17 18  1  0  0  0
 18 36  1  0  0  0
 18 37  1  0  0  0
 18 38  1  0  0  0
 19 39  1  0  0  0
M  END
$$$$
250
                    3D
 Schrodinger Suite 2021-2.
 40 40  0  0  1  0            999 V2000
   -1.4114    3.6132    5.2882 C   0  0  0  0  0  0
   -1.1480    3.1390    3.8741 C   0  0  0  0  0  0
   -0.1150    3.7176    3.1134 C   0  0  0  0  0  0
    0.1232    3.2751    1.7994 C   0  0  0  0  0  0
   -0.6548    2.2410    1.2332 C   0  0  0  0  0  0
   -0.3423    1.8435   -0.1637 C   0  0  0  0  0  0
   -0.3216    2.6389   -1.1017 O   0  0  0  0  0  0
    0.0699    0.3893   -0.4023 C   0  0  0  0  0  0
    1.5726    0.1679   -0.1424 C   0  0  0  0  0  0
    1.9159   -1.3008    0.1199 C   0  0  0  0  0  0
    1.2209   -2.2016   -0.3517 O   0  0  0  0  0  0
    3.0033   -1.5313    0.8697 N   0  0  0  0  0  0
    3.4989   -2.8572    1.2131 C   0  0  0  0  0  0
    4.8286   -2.7607    1.9730 C   0  0  0  0  0  0
    5.3904   -4.1392    2.3454 C   0  0  0  0  0  0
    6.6122   -3.9895    3.0358 O   0  0  0  0  0  0
   -1.7212    1.6784    1.9882 C   0  0  0  0  0  0
   -2.6620    0.6211    1.4285 C   0  0  0  0  0  0
   -1.9476    2.1274    3.3074 C   0  0  0  0  0  0
   -0.5011    4.0028    5.7449 H   0  0  0  0  0  0
   -2.1612    4.4046    5.2854 H   0  0  0  0  0  0
   -1.7769    2.7950    5.9092 H   0  0  0  0  0  0
    0.4967    4.5026    3.5332 H   0  0  0  0  0  0
    0.9209    3.7305    1.2298 H   0  0  0  0  0  0
   -0.5147   -0.2606    0.2456 H   0  0  0  0  0  0
   -0.1787    0.1106   -1.4267 H   0  0  0  0  0  0
    2.1544    0.5183   -0.9956 H   0  0  0  0  0  0
    1.8982    0.7543    0.7190 H   0  0  0  0  0  0
    3.5227   -0.7392    1.2198 H   0  0  0  0  0  0
    2.7546   -3.3728    1.8219 H   0  0  0  0  0  0
    3.6330   -3.4425    0.3018 H   0  0  0  0  0  0
    5.5572   -2.2249    1.3627 H   0  0  0  0  0  0
    4.6879   -2.1693    2.8791 H   0  0  0  0  0  0
    4.6890   -4.6825    2.9791 H   0  0  0  0  0  0
    5.5592   -4.7412    1.4520 H   0  0  0  0  0  0
    6.9415   -4.8482    3.2541 H   0  0  0  0  0  0
   -3.6360    0.6789    1.9154 H   0  0  0  0  0  0
   -2.8317    0.7485    0.3593 H   0  0  0  0  0  0
   -2.2623   -0.3774    1.6057 H   0  0  0  0  0  0
   -2.7519    1.6995    3.8885 H   0  0  0  0  0  0
  1  2  1  0  0  0
  1 20  1  0  0  0
  1 21  1  0  0  0
  1 22  1  0  0  0
  2 19  1  0  0  0
  2  3  2  0  0  0
  3  4  1  0  0  0
  3 23  1  0  0  0
  4  5  2  0  0  0
  4 24  1  0  0  0
  5  6  1  0  0  0
  5 17  1  0  0  0
  6  7  2  0  0  0
  6  8  1  0  0  0
  8  9  1  0  0  0
  8 25  1  0  0  0
  8 26  1  0  0  0
  9 10  1  0  0  0
  9 27  1  0  0  0
  9 28  1  0  0  0
 10 11  2  0  0  0
 10 12  1  0  0  0
 12 13  1  0  0  0
 12 29  1  0  0  0
 13 14  1  0  0  0
 13 30  1  0  0  0
 13 31  1  0  0  0
 14 15  1  0  0  0
 14 32  1  0  0  0
 14 33  1  0  0  0
 15 16  1  0  0  0
 15 34  1  0  0  0
 15 35  1  0  0  0
 16 36  1  0  0  0
 17 18  1  0  0  0
 17 19  2  0  0  0
 18 37  1  0  0  0
 18 38  1  0  0  0
 18 39  1  0  0  0
 19 40  1  0  0  0
M  END
$$$$
251
                    3D
 Schrodinger Suite 2021-2.
 43 45  0  0  1  0            999 V2000
   -0.6040    3.5521    2.1304 C   0  0  0  0  0  0
   -0.3170    2.3216    1.2634 C   0  0  0  0  0  0
    0.1672    2.6960   -0.1453 C   0  0  0  0  0  0
    0.4669    1.2319   -1.1799 S   0  0  0  0  0  0
    2.1026    0.6465   -0.5850 C   0  0  0  0  0  0
    2.8157    1.2244    0.3389 N   0  0  0  0  0  0
    4.0423    0.6761    0.7025 C   0  0  0  0  0  0
    4.4906   -0.4275    0.1121 C   0  0  0  0  0  0
    3.7614   -1.1348   -0.9305 C   0  0  0  0  0  0
    4.1769   -2.1574   -1.4812 O   0  0  0  0  0  0
    2.5590   -0.5466   -1.2413 N   0  0  0  0  0  0
    1.7764   -1.1799   -2.2495 C   0  0  0  0  0  0
    0.8527   -2.1868   -1.8998 C   0  0  0  0  0  0
    0.0832   -2.8123   -2.8987 C   0  0  0  0  0  0
    0.2221   -2.4475   -4.2538 C   0  0  0  0  0  0
   -0.5719   -3.1121   -5.1639 O   0  0  0  0  0  0
   -0.4653   -2.7568   -6.5357 C   0  0  0  0  0  0
   -1.4461   -3.6119   -7.3412 C   0  0  0  0  0  0
    1.1546   -1.4361   -4.5981 C   0  0  0  0  0  0
    1.9269   -0.8081   -3.6021 C   0  0  0  0  0  0
    6.0319   -1.0227    0.6601 S   0  0  0  0  0  0
    6.1864    0.3121    1.8928 C   0  0  0  0  0  0
    4.9524    1.2521    1.7669 C   0  0  0  0  0  0
   -0.9464    3.2573    3.1226 H   0  0  0  0  0  0
    0.2909    4.1625    2.2550 H   0  0  0  0  0  0
   -1.3777    4.1771    1.6834 H   0  0  0  0  0  0
    0.4275    1.7015    1.7628 H   0  0  0  0  0  0
   -1.2207    1.7157    1.1888 H   0  0  0  0  0  0
   -0.5941    3.2995   -0.6398 H   0  0  0  0  0  0
    1.0682    3.3087   -0.1021 H   0  0  0  0  0  0
    0.7330   -2.4803   -0.8669 H   0  0  0  0  0  0
   -0.6218   -3.5823   -2.6215 H   0  0  0  0  0  0
   -0.7033   -1.7012   -6.6748 H   0  0  0  0  0  0
    0.5503   -2.9292   -6.8957 H   0  0  0  0  0  0
   -1.3984   -3.3646   -8.4018 H   0  0  0  0  0  0
   -1.2193   -4.6731   -7.2347 H   0  0  0  0  0  0
   -2.4711   -3.4524   -7.0056 H   0  0  0  0  0  0
    1.2977   -1.1235   -5.6211 H   0  0  0  0  0  0
    2.6344   -0.0396   -3.8778 H   0  0  0  0  0  0
    6.2364   -0.1280    2.8889 H   0  0  0  0  0  0
    7.1152    0.8581    1.7268 H   0  0  0  0  0  0
    5.2573    2.2581    1.4775 H   0  0  0  0  0  0
    4.4158    1.3252    2.7133 H   0  0  0  0  0  0
  1  2  1  0  0  0
  1 24  1  0  0  0
  1 25  1  0  0  0
  1 26  1  0  0  0
  2  3  1  0  0  0
  2 27  1  0  0  0
  2 28  1  0  0  0
  3  4  1  0  0  0
  3 29  1  0  0  0
  3 30  1  0  0  0
  4  5  1  0  0  0
  5 11  1  0  0  0
  5  6  2  0  0  0
  6  7  1  0  0  0
  7 23  1  0  0  0
  7  8  2  0  0  0
  8  9  1  0  0  0
  8 21  1  0  0  0
  9 10  2  0  0  0
  9 11  1  0  0  0
 11 12  1  0  0  0
 12 20  1  0  0  0
 12 13  2  0  0  0
 13 14  1  0  0  0
 13 31  1  0  0  0
 14 15  2  0  0  0
 14 32  1  0  0  0
 15 16  1  0  0  0
 15 19  1  0  0  0
 16 17  1  0  0  0
 17 18  1  0  0  0
 17 33  1  0  0  0
 17 34  1  0  0  0
 18 35  1  0  0  0
 18 36  1  0  0  0
 18 37  1  0  0  0
 19 20  2  0  0  0
 19 38  1  0  0  0
 20 39  1  0  0  0
 21 22  1  0  0  0
 22 23  1  0  0  0
 22 40  1  0  0  0
 22 41  1  0  0  0
 23 42  1  0  0  0
 23 43  1  0  0  0
M  END
$$$$
252
                    3D
 Schrodinger Suite 2021-2.
 32 33  0  0  1  0            999 V2000
   -2.2685    1.4001    0.5482 O   0  0  0  0  0  0
   -1.1351    1.5926    1.3677 C   0  0  0  0  0  0
    0.1504    1.2501    0.6011 C   0  0  0  0  0  0
    0.2819   -0.2439    0.2721 C   0  0  0  0  0  0
    1.8891   -0.6147   -0.4875 S   0  0  0  0  0  0
    2.0871   -2.3686   -0.0505 C   0  0  0  0  0  0
    2.9227   -2.5915    1.2249 C   0  0  0  0  0  0
    2.2222   -2.2146    2.4491 N   0  0  0  0  0  0
    2.3359   -0.9197    2.9785 C   0  0  0  0  0  0
    3.4096   -0.1540    2.6642 N   0  0  0  0  0  0
    3.4927    1.0869    3.1488 C   0  0  0  0  0  0
    2.6337    1.7305    3.9416 N   0  0  0  0  0  0
    1.5570    0.9564    4.2639 C   0  0  0  0  0  0
    0.2462    1.5236    5.2852 S   0  0  0  0  0  0
   -0.5673   -0.0068    5.1305 C   0  0  0  0  0  0
    0.0887   -0.9239    4.3462 C   0  0  0  0  0  0
    1.3304   -0.3869    3.8277 C   0  0  0  0  0  0
   -3.0397    1.6367    1.0405 H   0  0  0  0  0  0
   -1.1126    2.6338    1.6903 H   0  0  0  0  0  0
   -1.2268    0.9806    2.2651 H   0  0  0  0  0  0
    0.2080    1.8404   -0.3142 H   0  0  0  0  0  0
    1.0037    1.5504    1.2101 H   0  0  0  0  0  0
    0.1661   -0.8297    1.1821 H   0  0  0  0  0  0
   -0.5083   -0.5654   -0.4066 H   0  0  0  0  0  0
    1.1117   -2.8508    0.0224 H   0  0  0  0  0  0
    2.6027   -2.8446   -0.8847 H   0  0  0  0  0  0
    3.1504   -3.6543    1.3089 H   0  0  0  0  0  0
    3.8881   -2.0927    1.1392 H   0  0  0  0  0  0
    1.3900   -2.7380    2.6790 H   0  0  0  0  0  0
    4.3702    1.6450    2.8581 H   0  0  0  0  0  0
   -1.5103   -0.1481    5.6379 H   0  0  0  0  0  0
   -0.2686   -1.9208    4.1351 H   0  0  0  0  0  0
  1  2  1  0  0  0
  1 18  1  0  0  0
  2  3  1  0  0  0
  2 19  1  0  0  0
  2 20  1  0  0  0
  3  4  1  0  0  0
  3 21  1  0  0  0
  3 22  1  0  0  0
  4  5  1  0  0  0
  4 23  1  0  0  0
  4 24  1  0  0  0
  5  6  1  0  0  0
  6  7  1  0  0  0
  6 25  1  0  0  0
  6 26  1  0  0  0
  7  8  1  0  0  0
  7 27  1  0  0  0
  7 28  1  0  0  0
  8  9  1  0  0  0
  8 29  1  0  0  0
  9 17  1  0  0  0
  9 10  2  0  0  0
 10 11  1  0  0  0
 11 12  2  0  0  0
 11 30  1  0  0  0
 12 13  1  0  0  0
 13 17  2  0  0  0
 13 14  1  0  0  0
 14 15  1  0  0  0
 15 16  2  0  0  0
 15 31  1  0  0  0
 16 17  1  0  0  0
 16 32  1  0  0  0
M  END
$$$$
253
                    3D
 Schrodinger Suite 2021-2.
 40 40  0  0  1  0            999 V2000
   -3.9899   -1.9436   -0.1755 C   0  0  0  0  0  0
   -2.5321   -2.2871   -0.4911 C   0  0  0  0  0  0
   -1.7267   -1.1372   -0.2884 O   0  0  0  0  0  0
   -0.3860   -1.2160   -0.4272 C   0  0  0  0  0  0
    0.1981   -2.2582   -0.7334 O   0  0  0  0  0  0
    0.3212    0.0774   -0.1784 C   0  0  0  0  0  0
   -0.3863    1.2248   -0.0080 C   0  0  0  0  0  0
    0.1074    2.5891    0.2771 C   0  0  0  0  0  0
    1.3124    2.8572    0.9683 C   0  0  0  0  0  0
    1.7395    4.1818    1.1844 C   0  0  0  0  0  0
    0.9676    5.2599    0.7093 C   0  0  0  0  0  0
    1.4070    6.6275    0.9316 C   0  0  0  0  0  0
    1.7565    7.7161    1.1086 N   0  0  0  0  0  0
   -0.2327    5.0052    0.0180 C   0  0  0  0  0  0
   -0.6553    3.6790   -0.1959 C   0  0  0  0  0  0
    1.7161    0.0241   -0.1739 N   0  0  0  0  0  0
    2.5043   -0.7742    0.7717 C   0  0  0  0  0  0
    1.8673   -0.9128    2.1649 C   0  0  0  0  0  0
    2.4703    0.6073   -1.2824 C   0  0  0  0  0  0
    2.9889   -0.4512   -2.2654 C   0  0  0  0  0  0
   -4.6337   -2.8100   -0.3261 H   0  0  0  0  0  0
   -4.1007   -1.6206    0.8599 H   0  0  0  0  0  0
   -4.3525   -1.1415   -0.8188 H   0  0  0  0  0  0
   -2.1930   -3.0989    0.1539 H   0  0  0  0  0  0
   -2.4395   -2.6246   -1.5241 H   0  0  0  0  0  0
   -1.4646    1.1878   -0.0587 H   0  0  0  0  0  0
    1.9196    2.0563    1.3580 H   0  0  0  0  0  0
    2.6615    4.3626    1.7179 H   0  0  0  0  0  0
   -0.8341    5.8227   -0.3534 H   0  0  0  0  0  0
   -1.5751    3.5011   -0.7342 H   0  0  0  0  0  0
    2.6673   -1.7664    0.3503 H   0  0  0  0  0  0
    3.4912   -0.3242    0.8861 H   0  0  0  0  0  0
    2.5281   -1.4653    2.8328 H   0  0  0  0  0  0
    1.6833    0.0616    2.6172 H   0  0  0  0  0  0
    0.9213   -1.4523    2.1307 H   0  0  0  0  0  0
    1.8434    1.3173   -1.8236 H   0  0  0  0  0  0
    3.3043    1.1882   -0.8869 H   0  0  0  0  0  0
    3.5101    0.0197   -3.0988 H   0  0  0  0  0  0
    3.6882   -1.1369   -1.7869 H   0  0  0  0  0  0
    2.1690   -1.0401   -2.6771 H   0  0  0  0  0  0
  1  2  1  0  0  0
  1 21  1  0  0  0
  1 22  1  0  0  0
  1 23  1  0  0  0
  2  3  1  0  0  0
  2 24  1  0  0  0
  2 25  1  0  0  0
  3  4  1  0  0  0
  4  5  2  0  0  0
  4  6  1  0  0  0
  6  7  2  0  0  0
  6 16  1  0  0  0
  7  8  1  0  0  0
  7 26  1  0  0  0
  8 15  1  0  0  0
  8  9  2  0  0  0
  9 10  1  0  0  0
  9 27  1  0  0  0
 10 11  2  0  0  0
 10 28  1  0  0  0
 11 12  1  0  0  0
 11 14  1  0  0  0
 12 13  3  0  0  0
 14 15  2  0  0  0
 14 29  1  0  0  0
 15 30  1  0  0  0
 16 17  1  0  0  0
 16 19  1  0  0  0
 17 18  1  0  0  0
 17 31  1  0  0  0
 17 32  1  0  0  0
 18 33  1  0  0  0
 18 34  1  0  0  0
 18 35  1  0  0  0
 19 20  1  0  0  0
 19 36  1  0  0  0
 19 37  1  0  0  0
 20 38  1  0  0  0
 20 39  1  0  0  0
 20 40  1  0  0  0
M  END
$$$$
254
                    3D
 Schrodinger Suite 2021-2.
 40 40  0  0  1  0            999 V2000
   -5.1297   -0.2543    1.5113 N   0  0  0  0  0  0
   -4.3518    0.6196    2.1562 C   0  0  0  0  0  0
   -4.8023    1.4248    2.9679 O   0  0  0  0  0  0
   -2.8522    0.5750    1.8656 C   0  0  0  0  0  0
   -2.5002    1.3072    0.2049 S   0  0  0  0  0  0
   -2.9868    0.3712   -0.8207 O   0  0  0  0  0  0
   -2.9709    2.7008    0.2008 O   0  0  0  0  0  0
   -0.6542    1.3209    0.1618 C   0  0  0  0  0  0
   -0.0643   -0.0951    0.0794 C   0  0  0  0  0  0
    1.4700   -0.0847    0.0340 C   0  0  0  0  0  0
    2.0701   -1.4956   -0.0512 C   0  0  0  0  0  0
    3.6055   -1.4806   -0.0561 C   0  0  0  0  0  0
    4.2107   -2.8893   -0.1389 C   0  0  0  0  0  0
    5.7267   -2.8629   -0.0928 C   0  0  0  0  0  0
    6.3994   -2.9709    1.1428 C   0  0  0  0  0  0
    7.8068   -2.9385    1.1873 C   0  0  0  0  0  0
    8.5465   -2.7985   -0.0030 C   0  0  0  0  0  0
    7.8783   -2.6904   -1.2381 C   0  0  0  0  0  0
    6.4706   -2.7218   -1.2833 C   0  0  0  0  0  0
   -6.1252   -0.2572    1.6811 H   0  0  0  0  0  0
   -4.7266   -0.8971    0.8449 H   0  0  0  0  0  0
   -2.3066    1.1443    2.6186 H   0  0  0  0  0  0
   -2.4932   -0.4534    1.8907 H   0  0  0  0  0  0
   -0.3512    1.9053   -0.7072 H   0  0  0  0  0  0
   -0.2971    1.8461    1.0479 H   0  0  0  0  0  0
   -0.3917   -0.6827    0.9366 H   0  0  0  0  0  0
   -0.4492   -0.5992   -0.8077 H   0  0  0  0  0  0
    1.8045    0.5034   -0.8214 H   0  0  0  0  0  0
    1.8532    0.4183    0.9227 H   0  0  0  0  0  0
    1.7180   -2.0911    0.7920 H   0  0  0  0  0  0
    1.7076   -1.9915   -0.9526 H   0  0  0  0  0  0
    3.9622   -0.8825   -0.8957 H   0  0  0  0  0  0
    3.9627   -0.9875    0.8489 H   0  0  0  0  0  0
    3.8411   -3.5040    0.6831 H   0  0  0  0  0  0
    3.8898   -3.3816   -1.0580 H   0  0  0  0  0  0
    5.8380   -3.0765    2.0596 H   0  0  0  0  0  0
    8.3188   -3.0204    2.1347 H   0  0  0  0  0  0
    9.6256   -2.7734    0.0314 H   0  0  0  0  0  0
    8.4454   -2.5823   -2.1508 H   0  0  0  0  0  0
    5.9640   -2.6351   -2.2334 H   0  0  0  0  0  0
  1  2  1  0  0  0
  1 20  1  0  0  0
  1 21  1  0  0  0
  2  3  2  0  0  0
  2  4  1  0  0  0
  4  5  1  0  0  0
  4 22  1  0  0  0
  4 23  1  0  0  0
  5  6  2  0  0  0
  5  7  2  0  0  0
  5  8  1  0  0  0
  8  9  1  0  0  0
  8 24  1  0  0  0
  8 25  1  0  0  0
  9 10  1  0  0  0
  9 26  1  0  0  0
  9 27  1  0  0  0
 10 11  1  0  0  0
 10 28  1  0  0  0
 10 29  1  0  0  0
 11 12  1  0  0  0
 11 30  1  0  0  0
 11 31  1  0  0  0
 12 13  1  0  0  0
 12 32  1  0  0  0
 12 33  1  0  0  0
 13 14  1  0  0  0
 13 34  1  0  0  0
 13 35  1  0  0  0
 14 19  1  0  0  0
 14 15  2  0  0  0
 15 16  1  0  0  0
 15 36  1  0  0  0
 16 17  2  0  0  0
 16 37  1  0  0  0
 17 18  1  0  0  0
 17 38  1  0  0  0
 18 19  2  0  0  0
 18 39  1  0  0  0
 19 40  1  0  0  0
M  END
$$$$
255
                    3D
 Schrodinger Suite 2021-2.
 34 34  0  0  1  0            999 V2000
   -1.7230    1.2072    0.5665 O   0  0  0  0  0  0
   -0.5089    1.0114    0.5368 C   0  0  0  0  0  0
    0.0117   -0.4186    0.3099 C   0  0  0  0  0  0
    1.4515   -0.5217    0.0735 N   0  0  0  0  0  0
    2.0541   -0.0709   -1.1150 C   0  0  0  0  0  0
    1.3030    0.2054   -2.2830 C   0  0  0  0  0  0
    1.9385    0.6703   -3.4478 C   0  0  0  0  0  0
    3.3301    0.8621   -3.4580 C   0  0  0  0  0  0
    3.9435    1.3103   -4.5788 F   0  0  0  0  0  0
    4.0865    0.5890   -2.3039 C   0  0  0  0  0  0
    3.4575    0.1210   -1.1218 C   0  0  0  0  0  0
    4.1423   -0.1551    0.0454 O   0  0  0  0  0  0
    5.5478    0.0577    0.0787 C   0  0  0  0  0  0
    6.0772   -0.3025    1.4720 C   0  0  0  0  0  0
    7.3957   -0.1135    1.5043 F   0  0  0  0  0  0
    5.5106    0.4747    2.3946 F   0  0  0  0  0  0
    5.8214   -1.5815    1.7456 F   0  0  0  0  0  0
    0.3952    1.9946    0.6795 N   0  0  0  0  0  0
    0.1077    3.4170    0.8233 C   0  0  0  0  0  0
    0.8805    4.2330   -0.2235 C   0  0  0  0  0  0
    0.6262    5.5293   -0.0507 F   0  0  0  0  0  0
    2.1920    4.0313   -0.0910 F   0  0  0  0  0  0
    0.5056    3.8817   -1.4538 F   0  0  0  0  0  0
   -0.2116   -0.9950    1.2078 H   0  0  0  0  0  0
   -0.5467   -0.8987   -0.4937 H   0  0  0  0  0  0
    2.0449   -0.6725    0.8771 H   0  0  0  0  0  0
    0.2326    0.0709   -2.3076 H   0  0  0  0  0  0
    1.3568    0.8802   -4.3332 H   0  0  0  0  0  0
    5.1523    0.7503   -2.3525 H   0  0  0  0  0  0
    6.0418   -0.5628   -0.6706 H   0  0  0  0  0  0
    5.7773    1.1021   -0.1396 H   0  0  0  0  0  0
    1.3702    1.7358    0.6361 H   0  0  0  0  0  0
   -0.9598    3.6224    0.7314 H   0  0  0  0  0  0
    0.3995    3.7257    1.8276 H   0  0  0  0  0  0
  1  2  2  0  0  0
  2  3  1  0  0  0
  2 18  1  0  0  0
  3  4  1  0  0  0
  3 24  1  0  0  0
  3 25  1  0  0  0
  4  5  1  0  0  0
  4 26  1  0  0  0
  5 11  1  0  0  0
  5  6  2  0  0  0
  6  7  1  0  0  0
  6 27  1  0  0  0
  7  8  2  0  0  0
  7 28  1  0  0  0
  8  9  1  0  0  0
  8 10  1  0  0  0
 10 11  2  0  0  0
 10 29  1  0  0  0
 11 12  1  0  0  0
 12 13  1  0  0  0
 13 14  1  0  0  0
 13 30  1  0  0  0
 13 31  1  0  0  0
 14 15  1  0  0  0
 14 16  1  0  0  0
 14 17  1  0  0  0
 18 19  1  0  0  0
 18 32  1  0  0  0
 19 20  1  0  0  0
 19 33  1  0  0  0
 19 34  1  0  0  0
 20 21  1  0  0  0
 20 22  1  0  0  0
 20 23  1  0  0  0
M  END
$$$$
256
                    3D
 Schrodinger Suite 2021-2.
 34 34  0  0  1  0            999 V2000
   -2.7104    0.5642   -0.4784 O   0  0  0  0  0  0
   -2.0680    1.4080    0.1494 C   0  0  0  0  0  0
   -0.5422    1.3089    0.2563 C   0  0  0  0  0  0
   -0.0050   -0.1180    0.0415 C   0  0  0  0  0  0
    1.5190   -0.2026    0.2090 C   0  0  0  0  0  0
    2.0549   -1.6249   -0.0056 C   0  0  0  0  0  0
    3.5774   -1.7086    0.1582 C   0  0  0  0  0  0
    4.0830   -3.4739   -0.1165 S   0  0  2  0  0  0
    4.9718   -3.8758    1.0621 O   0  0  0  0  0  0
    5.2026   -3.1442   -1.5160 C   0  0  0  0  0  0
    6.5374   -2.7632   -1.2753 C   0  0  0  0  0  0
    7.3931   -2.5094   -2.3652 C   0  0  0  0  0  0
    6.9127   -2.6361   -3.6847 C   0  0  0  0  0  0
    7.9634   -2.3244   -5.0173 Cl  0  0  0  0  0  0
    5.5752   -3.0170   -3.9172 C   0  0  0  0  0  0
    4.7154   -3.2723   -2.8309 C   0  0  0  0  0  0
   -2.6366    2.4308    0.8044 N   0  0  0  0  0  0
   -4.0083    2.2769    1.0952 O   0  0  0  0  0  0
   -0.1027    1.9855   -0.4774 H   0  0  0  0  0  0
   -0.2327    1.6692    1.2386 H   0  0  0  0  0  0
   -0.4832   -0.7996    0.7468 H   0  0  0  0  0  0
   -0.2734   -0.4669   -0.9568 H   0  0  0  0  0  0
    1.9997    0.4765   -0.4963 H   0  0  0  0  0  0
    1.7946    0.1416    1.2065 H   0  0  0  0  0  0
    1.5760   -2.3038    0.7011 H   0  0  0  0  0  0
    1.7790   -1.9697   -1.0030 H   0  0  0  0  0  0
    4.0775   -1.0490   -0.5516 H   0  0  0  0  0  0
    3.8794   -1.4018    1.1599 H   0  0  0  0  0  0
    6.9057   -2.6643   -0.2649 H   0  0  0  0  0  0
    8.4178   -2.2180   -2.1874 H   0  0  0  0  0  0
    5.2083   -3.1143   -4.9284 H   0  0  0  0  0  0
    3.6902   -3.5631   -3.0075 H   0  0  0  0  0  0
   -2.1924    3.0333    1.4822 H   0  0  0  0  0  0
   -4.1728    1.3701    0.8834 H   0  0  0  0  0  0
  1  2  2  0  0  0
  2  3  1  0  0  0
  2 17  1  0  0  0
  3  4  1  0  0  0
  3 19  1  0  0  0
  3 20  1  0  0  0
  4  5  1  0  0  0
  4 21  1  0  0  0
  4 22  1  0  0  0
  5  6  1  0  0  0
  5 23  1  0  0  0
  5 24  1  0  0  0
  6  7  1  0  0  0
  6 25  1  0  0  0
  6 26  1  0  0  0
  7  8  1  0  0  0
  7 27  1  0  0  0
  7 28  1  0  0  0
  8  9  2  0  0  0
  8 10  1  0  0  0
 10 16  2  0  0  0
 10 11  1  0  0  0
 11 12  2  0  0  0
 11 29  1  0  0  0
 12 13  1  0  0  0
 12 30  1  0  0  0
 13 14  1  0  0  0
 13 15  2  0  0  0
 15 16  1  0  0  0
 15 31  1  0  0  0
 16 32  1  0  0  0
 17 18  1  0  0  0
 17 33  1  0  0  0
 18 34  1  0  0  0
M  END
$$$$
257
                    3D
 Schrodinger Suite 2021-2.
 46 48  0  0  1  0            999 V2000
   -0.2900   -5.3387   -0.0231 C   0  0  0  0  0  0
   -1.6077   -4.8096    0.0021 O   0  0  0  0  0  0
   -1.7573   -3.4393    0.0107 C   0  0  0  0  0  0
   -3.0768   -2.9428    0.0266 C   0  0  0  0  0  0
   -3.3220   -1.5582    0.0323 C   0  0  0  0  0  0
   -2.2361   -0.6669    0.0231 C   0  0  0  0  0  0
   -2.1611    0.7101    0.0194 N   0  0  0  0  0  0
   -0.8420    1.1362    0.0060 C   0  0  0  0  0  0
   -0.4886    2.5940   -0.0128 C   0  0  0  0  0  0
   -0.9691    3.3190    1.2527 C   0  0  0  0  0  0
   -0.9969    3.2926   -1.2825 C   0  0  0  0  0  0
   -0.0247    0.0298    0.0072 C   0  0  0  0  0  0
    1.4745    0.0154   -0.0091 C   0  0  0  0  0  0
    2.0311    0.1480   -1.4350 C   0  0  0  0  0  0
    3.4886    0.1346   -1.4467 N   0  0  0  0  0  0
    4.2486   -0.9692   -1.3815 C   0  0  0  0  0  0
    3.7775   -2.1046   -1.2985 O   0  0  0  0  0  0
    5.7167   -0.6973   -1.4192 C   0  0  0  0  0  0
    6.5967   -1.6986   -2.1391 C   0  0  0  0  0  0
    6.6244   -1.6217   -0.6333 C   0  0  0  0  0  0
   -0.8882   -1.1218    0.0116 C   0  0  0  0  0  0
   -0.6751   -2.5211    0.0040 C   0  0  0  0  0  0
   -2.9442    1.3477    0.0193 H   0  0  0  0  0  0
   -0.3390   -6.4276   -0.0258 H   0  0  0  0  0  0
    0.2464   -5.0306   -0.9216 H   0  0  0  0  0  0
    0.2779   -5.0369    0.8580 H   0  0  0  0  0  0
   -3.9085   -3.6321    0.0321 H   0  0  0  0  0  0
   -4.3353   -1.1849    0.0414 H   0  0  0  0  0  0
    0.5978    2.6812   -0.0274 H   0  0  0  0  0  0
   -0.5500    2.8594    2.1485 H   0  0  0  0  0  0
   -0.6633    4.3655    1.2466 H   0  0  0  0  0  0
   -2.0556    3.2911    1.3413 H   0  0  0  0  0  0
   -0.5975    2.8144   -2.1775 H   0  0  0  0  0  0
   -2.0851    3.2639   -1.3469 H   0  0  0  0  0  0
   -0.6908    4.3389   -1.3045 H   0  0  0  0  0  0
    1.8667    0.8174    0.6169 H   0  0  0  0  0  0
    1.8362   -0.9096    0.4411 H   0  0  0  0  0  0
    1.6457   -0.6509   -2.0711 H   0  0  0  0  0  0
    1.6973    1.0860   -1.8793 H   0  0  0  0  0  0
    3.9532    1.0287   -1.5137 H   0  0  0  0  0  0
    6.0167    0.3479   -1.4789 H   0  0  0  0  0  0
    6.1300   -2.5746   -2.5867 H   0  0  0  0  0  0
    7.4487   -1.3016   -2.6871 H   0  0  0  0  0  0
    7.4956   -1.1728   -0.1606 H   0  0  0  0  0  0
    6.1774   -2.4477   -0.0826 H   0  0  0  0  0  0
    0.3473   -2.8663   -0.0096 H   0  0  0  0  0  0
  1  2  1  0  0  0
  1 24  1  0  0  0
  1 25  1  0  0  0
  1 26  1  0  0  0
  2  3  1  0  0  0
  3 22  1  0  0  0
  3  4  2  0  0  0
  4  5  1  0  0  0
  4 27  1  0  0  0
  5  6  2  0  0  0
  5 28  1  0  0  0
  6 21  1  0  0  0
  6  7  1  0  0  0
  7 23  1  0  0  0
  7  8  1  0  0  0
  8  9  1  0  0  0
  8 12  2  0  0  0
  9 10  1  0  0  0
  9 11  1  0  0  0
  9 29  1  0  0  0
 10 30  1  0  0  0
 10 31  1  0  0  0
 10 32  1  0  0  0
 11 33  1  0  0  0
 11 34  1  0  0  0
 11 35  1  0  0  0
 12 13  1  0  0  0
 12 21  1  0  0  0
 13 14  1  0  0  0
 13 36  1  0  0  0
 13 37  1  0  0  0
 14 15  1  0  0  0
 14 38  1  0  0  0
 14 39  1  0  0  0
 15 16  1  0  0  0
 15 40  1  0  0  0
 16 17  2  0  0  0
 16 18  1  0  0  0
 18 20  1  0  0  0
 18 19  1  0  0  0
 18 41  1  0  0  0
 19 20  1  0  0  0
 19 42  1  0  0  0
 19 43  1  0  0  0
 20 44  1  0  0  0
 20 45  1  0  0  0
 21 22  2  0  0  0
 22 46  1  0  0  0
M  END
$$$$
258
                    3D
 Schrodinger Suite 2021-2.
 37 37  0  0  1  0            999 V2000
   -1.2308   -1.8575    1.5170 C   0  0  0  0  0  0
   -0.5484   -0.7049    1.4482 C   0  0  0  0  0  0
   -0.1744   -0.0095    0.1553 C   0  0  2  0  0  0
    1.2331   -0.0994   -0.0346 O   0  0  0  0  0  0
    1.7625   -0.0795   -1.2729 C   0  0  0  0  0  0
    1.1290    0.0218   -2.3251 O   0  0  0  0  0  0
    3.2882   -0.1966   -1.2414 C   0  0  0  0  0  0
    3.9429   -0.1562   -2.6331 C   0  0  0  0  0  0
    5.4680   -0.2823   -2.5581 C   0  0  0  0  0  0
   -0.6538    1.4343    0.1330 C   0  0  0  0  0  0
   -1.7462    1.7980   -0.6814 C   0  0  0  0  0  0
   -2.2052    3.1292   -0.6991 C   0  0  0  0  0  0
   -1.5863    4.1042    0.1092 C   0  0  0  0  0  0
   -2.0300    5.4022    0.0650 O   0  0  0  0  0  0
   -2.7363    5.9017    1.1014 C   0  0  0  0  0  0
   -3.1291    7.3584    0.8900 C   0  0  0  0  0  0
   -3.0604    5.2953    2.1237 O   0  0  0  0  0  0
   -0.4839    3.7444    0.9147 C   0  0  0  0  0  0
   -0.0249    2.4133    0.9322 C   0  0  0  0  0  0
   -0.6744   -0.5506   -0.6501 H   0  0  0  0  0  0
   -1.5634   -2.3667    0.6243 H   0  0  0  0  0  0
   -1.4655   -2.3069    2.4706 H   0  0  0  0  0  0
   -0.2297   -0.2259    2.3625 H   0  0  0  0  0  0
    3.6813    0.6125   -0.6255 H   0  0  0  0  0  0
    3.5492   -1.1288   -0.7395 H   0  0  0  0  0  0
    3.5493   -0.9631   -3.2532 H   0  0  0  0  0  0
    3.6875    0.7771   -3.1369 H   0  0  0  0  0  0
    5.9105   -0.2465   -3.5539 H   0  0  0  0  0  0
    5.9009    0.5287   -1.9719 H   0  0  0  0  0  0
    5.7627   -1.2250   -2.0963 H   0  0  0  0  0  0
   -2.2343    1.0572   -1.2975 H   0  0  0  0  0  0
   -3.0388    3.4006   -1.3302 H   0  0  0  0  0  0
   -2.4904    7.8282    0.1416 H   0  0  0  0  0  0
   -4.1637    7.4239    0.5531 H   0  0  0  0  0  0
   -3.0331    7.9150    1.8223 H   0  0  0  0  0  0
    0.0067    4.4883    1.5252 H   0  0  0  0  0  0
    0.8128    2.1455    1.5595 H   0  0  0  0  0  0
  1  2  2  0  0  0
  1 21  1  0  0  0
  1 22  1  0  0  0
  2  3  1  0  0  0
  2 23  1  0  0  0
  3 20  1  0  0  0
  3  4  1  0  0  0
  3 10  1  0  0  0
  4  5  1  0  0  0
  5  6  2  0  0  0
  5  7  1  0  0  0
  7  8  1  0  0  0
  7 24  1  0  0  0
  7 25  1  0  0  0
  8  9  1  0  0  0
  8 26  1  0  0  0
  8 27  1  0  0  0
  9 28  1  0  0  0
  9 29  1  0  0  0
  9 30  1  0  0  0
 10 19  1  0  0  0
 10 11  2  0  0  0
 11 12  1  0  0  0
 11 31  1  0  0  0
 12 13  2  0  0  0
 12 32  1  0  0  0
 13 14  1  0  0  0
 13 18  1  0  0  0
 14 15  1  0  0  0
 15 16  1  0  0  0
 15 17  2  0  0  0
 16 33  1  0  0  0
 16 34  1  0  0  0
 16 35  1  0  0  0
 18 19  2  0  0  0
 18 36  1  0  0  0
 19 37  1  0  0  0
M  END
$$$$
259
                    3D
 Schrodinger Suite 2021-2.
 45 46  0  0  1  0            999 V2000
   -2.6272    3.0531   -0.1019 C   0  0  0  0  0  0
   -2.1067    1.6119   -0.1265 C   0  0  0  0  0  0
   -0.5752    1.5369   -0.0492 C   0  0  0  0  0  0
   -0.0550    0.0929   -0.0651 C   0  0  0  0  0  0
    1.4818    0.0193    0.0100 C   0  0  0  0  0  0
    1.9628   -1.3812    0.0167 N   0  0  0  0  0  0
    2.1892   -1.9838   -1.1846 C   0  0  0  0  0  0
    2.0631   -1.3973   -2.2608 O   0  0  0  0  0  0
    2.6043   -3.4562   -1.2465 C   0  0  0  0  0  0
    2.2847   -4.2029    0.0515 C   0  0  0  0  0  0
    2.7417   -3.4317    1.3155 C   0  0  1  0  0  0
    2.1994   -4.1729    2.5767 C   0  0  0  0  0  0
    2.7608   -5.5853    2.8182 C   0  0  0  0  0  0
    4.2791   -3.2834    1.4405 C   0  0  0  0  0  0
    4.8496   -2.3639    2.3568 C   0  0  0  0  0  0
    6.2507   -2.2734    2.4685 C   0  0  0  0  0  0
    7.1023   -3.0320    1.7502 N   0  0  0  0  0  0
    6.5696   -3.9251    0.8926 C   0  0  0  0  0  0
    5.1830   -4.0941    0.7081 C   0  0  0  0  0  0
    2.1013   -2.0106    1.2216 C   0  0  0  0  0  0
    1.7387   -1.4688    2.2699 O   0  0  0  0  0  0
   -3.7155    3.0739   -0.1611 H   0  0  0  0  0  0
   -2.3348    3.5611    0.8173 H   0  0  0  0  0  0
   -2.2370    3.6279   -0.9422 H   0  0  0  0  0  0
   -2.5428    1.0592    0.7062 H   0  0  0  0  0  0
   -2.4517    1.1211   -1.0372 H   0  0  0  0  0  0
   -0.1422    2.0880   -0.8850 H   0  0  0  0  0  0
   -0.2334    2.0345    0.8593 H   0  0  0  0  0  0
   -0.4898   -0.4548    0.7717 H   0  0  0  0  0  0
   -0.4015   -0.4053   -0.9716 H   0  0  0  0  0  0
    1.9154    0.5831   -0.8180 H   0  0  0  0  0  0
    1.8318    0.5595    0.8917 H   0  0  0  0  0  0
    2.0957   -3.9397   -2.0813 H   0  0  0  0  0  0
    3.6686   -3.4949   -1.4744 H   0  0  0  0  0  0
    1.2049   -4.3574    0.0955 H   0  0  0  0  0  0
    2.7074   -5.2054    0.0093 H   0  0  0  0  0  0
    2.4182   -3.5898    3.4726 H   0  0  0  0  0  0
    1.1112   -4.2372    2.5269 H   0  0  0  0  0  0
    2.3448   -6.0063    3.7336 H   0  0  0  0  0  0
    2.5096   -6.2688    2.0081 H   0  0  0  0  0  0
    3.8447   -5.5767    2.9310 H   0  0  0  0  0  0
    4.2342   -1.7328    2.9799 H   0  0  0  0  0  0
    6.6985   -1.5754    3.1604 H   0  0  0  0  0  0
    7.2707   -4.5316    0.3387 H   0  0  0  0  0  0
    4.8483   -4.8476    0.0134 H   0  0  0  0  0  0
  1  2  1  0  0  0
  1 22  1  0  0  0
  1 23  1  0  0  0
  1 24  1  0  0  0
  2  3  1  0  0  0
  2 25  1  0  0  0
  2 26  1  0  0  0
  3  4  1  0  0  0
  3 27  1  0  0  0
  3 28  1  0  0  0
  4  5  1  0  0  0
  4 29  1  0  0  0
  4 30  1  0  0  0
  5  6  1  0  0  0
  5 31  1  0  0  0
  5 32  1  0  0  0
  6 20  1  0  0  0
  6  7  1  0  0  0
  7  8  2  0  0  0
  7  9  1  0  0  0
  9 10  1  0  0  0
  9 33  1  0  0  0
  9 34  1  0  0  0
 10 11  1  0  0  0
 10 35  1  0  0  0
 10 36  1  0  0  0
 11 12  1  0  0  0
 11 14  1  0  0  0
 11 20  1  0  0  0
 12 13  1  0  0  0
 12 37  1  0  0  0
 12 38  1  0  0  0
 13 39  1  0  0  0
 13 40  1  0  0  0
 13 41  1  0  0  0
 14 19  1  0  0  0
 14 15  2  0  0  0
 15 16  1  0  0  0
 15 42  1  0  0  0
 16 17  2  0  0  0
 16 43  1  0  0  0
 17 18  1  0  0  0
 18 19  2  0  0  0
 18 44  1  0  0  0
 19 45  1  0  0  0
 20 21  2  0  0  0
M  END
$$$$
260
                    3D
 Schrodinger Suite 2021-2.
 38 39  0  0  1  0            999 V2000
   -1.2853    1.6863    1.6516 C   0  0  0  0  0  0
    0.1090    1.5227    1.0252 C   0  0  0  0  0  0
    0.4593    0.1285    0.7450 N   0  0  0  0  0  0
    1.8777   -0.2461    0.8290 C   0  0  0  0  0  0
    2.4483   -0.2250   -0.5663 C   0  0  0  0  0  0
    2.9828   -1.2908   -1.2465 C   0  0  0  0  0  0
    3.4578   -0.8581   -2.8653 S   0  0  0  0  0  0
    2.9145    0.7856   -2.5518 C   0  0  0  0  0  0
    2.9442    1.8679   -3.5780 C   0  0  0  0  0  0
    1.2311    2.2972   -4.1259 S   0  0  0  0  0  0
    0.5844    0.6782   -4.7197 C   0  0  0  0  0  0
    0.4381    2.6976   -2.9533 O   0  0  0  0  0  0
    1.3326    3.2032   -5.2799 O   0  0  0  0  0  0
    2.4567    0.9592   -1.3108 N   0  0  0  0  0  0
   -0.3414   -0.6231   -0.1470 C   0  0  0  0  0  0
   -1.1001   -0.0088   -1.1742 C   0  0  0  0  0  0
   -1.8602   -0.7850   -2.0697 C   0  0  0  0  0  0
   -1.8731   -2.1867   -1.9533 C   0  0  0  0  0  0
   -1.1238   -2.8108   -0.9395 C   0  0  0  0  0  0
   -1.1321   -4.1601   -0.8252 F   0  0  0  0  0  0
   -0.3632   -2.0340   -0.0445 C   0  0  0  0  0  0
   -1.4725    2.7317    1.8969 H   0  0  0  0  0  0
   -2.0821    1.3634    0.9827 H   0  0  0  0  0  0
   -1.3693    1.1109    2.5739 H   0  0  0  0  0  0
    0.1902    2.1171    0.1151 H   0  0  0  0  0  0
    0.8431    1.9384    1.7156 H   0  0  0  0  0  0
    2.4186    0.4465    1.4745 H   0  0  0  0  0  0
    1.9779   -1.2320    1.2830 H   0  0  0  0  0  0
    3.1022   -2.3071   -0.9018 H   0  0  0  0  0  0
    3.4149    2.7599   -3.1647 H   0  0  0  0  0  0
    3.5206    1.5458   -4.4451 H   0  0  0  0  0  0
   -0.4158    0.8187   -5.1286 H   0  0  0  0  0  0
    1.2410    0.2834   -5.4944 H   0  0  0  0  0  0
    0.5339   -0.0267   -3.8898 H   0  0  0  0  0  0
   -1.0989    1.0628   -1.3028 H   0  0  0  0  0  0
   -2.4292   -0.3025   -2.8505 H   0  0  0  0  0  0
   -2.4554   -2.7818   -2.6412 H   0  0  0  0  0  0
    0.2039   -2.5340    0.7267 H   0  0  0  0  0  0
  1  2  1  0  0  0
  1 22  1  0  0  0
  1 23  1  0  0  0
  1 24  1  0  0  0
  2  3  1  0  0  0
  2 25  1  0  0  0
  2 26  1  0  0  0
  3  4  1  0  0  0
  3 15  1  0  0  0
  4  5  1  0  0  0
  4 27  1  0  0  0
  4 28  1  0  0  0
  5 14  1  0  0  0
  5  6  2  0  0  0
  6  7  1  0  0  0
  6 29  1  0  0  0
  7  8  1  0  0  0
  8  9  1  0  0  0
  8 14  2  0  0  0
  9 10  1  0  0  0
  9 30  1  0  0  0
  9 31  1  0  0  0
 10 11  1  0  0  0
 10 12  2  0  0  0
 10 13  2  0  0  0
 11 32  1  0  0  0
 11 33  1  0  0  0
 11 34  1  0  0  0
 15 21  1  0  0  0
 15 16  2  0  0  0
 16 17  1  0  0  0
 16 35  1  0  0  0
 17 18  2  0  0  0
 17 36  1  0  0  0
 18 19  1  0  0  0
 18 37  1  0  0  0
 19 20  1  0  0  0
 19 21  2  0  0  0
 21 38  1  0  0  0
M  END
$$$$
261
                    3D
 Schrodinger Suite 2021-2.
 35 36  0  0  1  0            999 V2000
    1.1725    1.5545   -2.3422 C   0  0  0  0  0  0
    0.2263    2.3084   -1.7605 C   0  0  0  0  0  0
   -0.8555    1.6847   -0.4467 S   0  0  0  0  0  0
   -0.6645    2.5605    0.7195 O   0  0  0  0  0  0
   -2.1905    1.5273   -1.0429 O   0  0  0  0  0  0
   -0.2992    0.1105   -0.0059 N   0  0  2  0  0  0
    0.9508   -0.0409    0.7378 C   0  0  0  0  0  0
    1.4516   -1.4852    0.6380 C   0  0  0  0  0  0
    2.7010   -1.6619    1.3607 N   0  0  0  0  0  0
    3.3569   -2.9009    1.3924 C   0  0  0  0  0  0
    4.5587   -2.9959    2.1244 C   0  0  0  0  0  0
    5.2636   -4.2127    2.1926 C   0  0  0  0  0  0
    4.7710   -5.3523    1.5264 C   0  0  0  0  0  0
    5.4723   -6.5742    1.5910 C   0  0  0  0  0  0
    4.9744   -7.7093    0.9221 C   0  0  0  0  0  0
    3.7755   -7.6264    0.1880 C   0  0  0  0  0  0
    3.0713   -6.4085    0.1204 C   0  0  0  0  0  0
    3.5648   -5.2681    0.7882 C   0  0  0  0  0  0
    2.8630   -4.0464    0.7234 C   0  0  0  0  0  0
    1.7996    1.9666   -3.1187 H   0  0  0  0  0  0
    1.3389    0.5252   -2.0641 H   0  0  0  0  0  0
    0.0524    3.3376   -2.0376 H   0  0  0  0  0  0
   -0.4454   -0.5871   -0.7350 H   0  0  0  0  0  0
    1.6983    0.6445    0.3380 H   0  0  0  0  0  0
    0.7802    0.2409    1.7775 H   0  0  0  0  0  0
    0.7028   -2.1664    1.0444 H   0  0  0  0  0  0
    1.6033   -1.7507   -0.4092 H   0  0  0  0  0  0
    3.0861   -0.8770    1.8668 H   0  0  0  0  0  0
    4.9487   -2.1301    2.6398 H   0  0  0  0  0  0
    6.1827   -4.2656    2.7576 H   0  0  0  0  0  0
    6.3925   -6.6465    2.1524 H   0  0  0  0  0  0
    5.5130   -8.6441    0.9725 H   0  0  0  0  0  0
    3.3954   -8.4983   -0.3238 H   0  0  0  0  0  0
    2.1526   -6.3549   -0.4457 H   0  0  0  0  0  0
    1.9454   -4.0030    0.1557 H   0  0  0  0  0  0
  1  2  2  0  0  0
  1 20  1  0  0  0
  1 21  1  0  0  0
  2  3  1  0  0  0
  2 22  1  0  0  0
  3  4  2  0  0  0
  3  5  2  0  0  0
  3  6  1  0  0  0
  6  7  1  0  0  0
  6 23  1  0  0  0
  7  8  1  0  0  0
  7 24  1  0  0  0
  7 25  1  0  0  0
  8  9  1  0  0  0
  8 26  1  0  0  0
  8 27  1  0  0  0
  9 10  1  0  0  0
  9 28  1  0  0  0
 10 19  1  0  0  0
 10 11  2  0  0  0
 11 12  1  0  0  0
 11 29  1  0  0  0
 12 13  2  0  0  0
 12 30  1  0  0  0
 13 18  1  0  0  0
 13 14  1  0  0  0
 14 15  2  0  0  0
 14 31  1  0  0  0
 15 16  1  0  0  0
 15 32  1  0  0  0
 16 17  2  0  0  0
 16 33  1  0  0  0
 17 18  1  0  0  0
 17 34  1  0  0  0
 18 19  2  0  0  0
 19 35  1  0  0  0
M  END
$$$$
262
                    3D
 Schrodinger Suite 2021-2.
 44 44  0  0  1  0            999 V2000
   -4.6807    0.3124    1.0329 C   0  0  0  0  0  0
   -3.9895    0.0438   -0.1768 O   0  0  0  0  0  0
   -2.6367   -0.1115   -0.0086 C   0  0  0  0  0  0
   -1.7805    1.0061   -0.1295 C   0  0  0  0  0  0
   -2.3699    2.3631   -0.4864 C   0  0  0  0  0  0
   -0.3845    0.8520    0.0565 C   0  0  0  0  0  0
    0.4510    1.9371   -0.0626 O   0  0  0  0  0  0
    0.4857    2.7716    1.0872 C   0  0  0  0  0  0
    0.1603   -0.4347    0.3028 C   0  0  0  0  0  0
    1.6336   -0.5986    0.4629 C   0  0  0  0  0  0
    2.3252    0.1203    1.1840 O   0  0  0  0  0  0
    2.2936   -1.7120   -0.3621 C   0  0  0  0  0  0
    3.6204   -1.2995   -1.0363 C   0  0  0  0  0  0
    3.4322   -0.1786   -2.0746 C   0  0  0  0  0  0
    4.2931   -2.5208   -1.6786 C   0  0  0  0  0  0
   -0.7070   -1.5505    0.4350 C   0  0  0  0  0  0
   -0.2069   -2.7961    0.7264 O   0  0  0  0  0  0
   -0.1569   -3.0753    2.1174 C   0  0  0  0  0  0
   -2.1010   -1.3915    0.2582 C   0  0  0  0  0  0
   -3.0244   -2.5978    0.3498 C   0  0  0  0  0  0
   -5.7458    0.4194    0.8282 H   0  0  0  0  0  0
   -4.5574   -0.4988    1.7513 H   0  0  0  0  0  0
   -4.3328    1.2382    1.4926 H   0  0  0  0  0  0
   -1.6434    2.9971   -0.9945 H   0  0  0  0  0  0
   -3.2228    2.2565   -1.1569 H   0  0  0  0  0  0
   -2.7067    2.8771    0.4138 H   0  0  0  0  0  0
    1.2889    3.5005    0.9803 H   0  0  0  0  0  0
   -0.4451    3.3219    1.2197 H   0  0  0  0  0  0
    0.6768    2.1954    1.9936 H   0  0  0  0  0  0
    2.4701   -2.5561    0.3049 H   0  0  0  0  0  0
    1.5934   -2.0582   -1.1229 H   0  0  0  0  0  0
    4.2999   -0.9300   -0.2671 H   0  0  0  0  0  0
    2.7447   -0.4830   -2.8644 H   0  0  0  0  0  0
    3.0363    0.7307   -1.6217 H   0  0  0  0  0  0
    4.3812    0.0833   -2.5433 H   0  0  0  0  0  0
    3.6720   -2.9459   -2.4678 H   0  0  0  0  0  0
    5.2548   -2.2549   -2.1181 H   0  0  0  0  0  0
    4.4751   -3.3026   -0.9405 H   0  0  0  0  0  0
    0.2459   -4.0757    2.2743 H   0  0  0  0  0  0
    0.4882   -2.3686    2.6409 H   0  0  0  0  0  0
   -1.1489   -3.0391    2.5689 H   0  0  0  0  0  0
   -2.5232   -3.5095    0.0241 H   0  0  0  0  0  0
   -3.3582   -2.7395    1.3777 H   0  0  0  0  0  0
   -3.9048   -2.4743   -0.2810 H   0  0  0  0  0  0
  1  2  1  0  0  0
  1 21  1  0  0  0
  1 22  1  0  0  0
  1 23  1  0  0  0
  2  3  1  0  0  0
  3 19  1  0  0  0
  3  4  2  0  0  0
  4  5  1  0  0  0
  4  6  1  0  0  0
  5 24  1  0  0  0
  5 25  1  0  0  0
  5 26  1  0  0  0
  6  7  1  0  0  0
  6  9  2  0  0  0
  7  8  1  0  0  0
  8 27  1  0  0  0
  8 28  1  0  0  0
  8 29  1  0  0  0
  9 10  1  0  0  0
  9 16  1  0  0  0
 10 11  2  0  0  0
 10 12  1  0  0  0
 12 13  1  0  0  0
 12 30  1  0  0  0
 12 31  1  0  0  0
 13 14  1  0  0  0
 13 15  1  0  0  0
 13 32  1  0  0  0
 14 33  1  0  0  0
 14 34  1  0  0  0
 14 35  1  0  0  0
 15 36  1  0  0  0
 15 37  1  0  0  0
 15 38  1  0  0  0
 16 17  1  0  0  0
 16 19  2  0  0  0
 17 18  1  0  0  0
 18 39  1  0  0  0
 18 40  1  0  0  0
 18 41  1  0  0  0
 19 20  1  0  0  0
 20 42  1  0  0  0
 20 43  1  0  0  0
 20 44  1  0  0  0
M  END
$$$$
263
                    3D
 Schrodinger Suite 2021-2.
 44 45  0  0  1  0            999 V2000
   -5.3996    8.8223   -5.6069 C   0  0  0  0  0  0
   -5.5075    8.2138   -4.2246 C   0  0  0  0  0  0
   -6.2693    8.8377   -3.2147 C   0  0  0  0  0  0
   -6.3323    8.2233   -1.9494 C   0  0  0  0  0  0
   -5.6357    7.0166   -1.7443 C   0  0  0  0  0  0
   -4.9005    6.4701   -2.8182 C   0  0  0  0  0  0
   -4.1743    5.2266   -2.6306 C   0  0  0  0  0  0
   -3.5700    4.1764   -2.4786 C   0  0  0  0  0  0
   -2.8991    2.9332   -2.2811 C   0  0  0  0  0  0
   -1.7643    2.8902   -1.5552 C   0  0  0  0  0  0
   -1.0132    1.6400   -1.3093 C   0  0  0  0  0  0
   -0.0033    1.6735   -0.5385 N   0  0  0  0  0  0
    0.5894    0.4153   -0.3644 O   0  0  0  0  0  0
    1.6906    0.5685    0.5140 C   0  0  0  0  0  0
    2.3456   -0.7984    0.7306 C   0  0  0  0  0  0
    3.4458   -0.6475    1.6119 O   0  0  0  0  0  0
    4.1055   -1.8738    1.8797 C   0  0  0  0  0  0
    5.2745   -1.6164    2.8350 C   0  0  0  0  0  0
    6.2261   -0.9090    2.2263 F   0  0  0  0  0  0
   -1.5231    0.3701   -2.0067 C   0  0  0  0  0  0
   -2.4078    0.6604   -3.2338 C   0  0  0  0  0  0
   -3.4970    1.7004   -2.9387 C   0  0  0  0  0  0
   -4.8368    7.0561   -4.0344 N   0  0  0  0  0  0
   -5.9525    9.7597   -5.6713 H   0  0  0  0  0  0
   -4.3567    9.0251   -5.8526 H   0  0  0  0  0  0
   -5.8024    8.1380   -6.3541 H   0  0  0  0  0  0
   -6.7934    9.7635   -3.4018 H   0  0  0  0  0  0
   -6.9048    8.6697   -1.1498 H   0  0  0  0  0  0
   -5.6682    6.5253   -0.7825 H   0  0  0  0  0  0
   -1.3518    3.7816   -1.1021 H   0  0  0  0  0  0
    2.4168    1.2658    0.0917 H   0  0  0  0  0  0
    1.3573    0.9751    1.4709 H   0  0  0  0  0  0
    1.6201   -1.4968    1.1509 H   0  0  0  0  0  0
    2.6828   -1.2059   -0.2237 H   0  0  0  0  0  0
    3.4049   -2.5724    2.3397 H   0  0  0  0  0  0
    4.4654   -2.3291    0.9555 H   0  0  0  0  0  0
    4.9590   -1.0654    3.7215 H   0  0  0  0  0  0
    5.7310   -2.5523    3.1575 H   0  0  0  0  0  0
   -0.6849   -0.2502   -2.3261 H   0  0  0  0  0  0
   -2.0876   -0.2138   -1.2791 H   0  0  0  0  0  0
   -1.7786    1.0295   -4.0451 H   0  0  0  0  0  0
   -2.8597   -0.2633   -3.5963 H   0  0  0  0  0  0
   -4.2432    1.2774   -2.2652 H   0  0  0  0  0  0
   -4.0151    1.9677   -3.8613 H   0  0  0  0  0  0
  1  2  1  0  0  0
  1 24  1  0  0  0
  1 25  1  0  0  0
  1 26  1  0  0  0
  2 23  1  0  0  0
  2  3  2  0  0  0
  3  4  1  0  0  0
  3 27  1  0  0  0
  4  5  2  0  0  0
  4 28  1  0  0  0
  5  6  1  0  0  0
  5 29  1  0  0  0
  6  7  1  0  0  0
  6 23  2  0  0  0
  7  8  3  0  0  0
  8  9  1  0  0  0
  9 22  1  0  0  0
  9 10  2  0  0  0
 10 11  1  0  0  0
 10 30  1  0  0  0
 11 12  2  0  0  0
 11 20  1  0  0  0
 12 13  1  0  0  0
 13 14  1  0  0  0
 14 15  1  0  0  0
 14 31  1  0  0  0
 14 32  1  0  0  0
 15 16  1  0  0  0
 15 33  1  0  0  0
 15 34  1  0  0  0
 16 17  1  0  0  0
 17 18  1  0  0  0
 17 35  1  0  0  0
 17 36  1  0  0  0
 18 19  1  0  0  0
 18 37  1  0  0  0
 18 38  1  0  0  0
 20 21  1  0  0  0
 20 39  1  0  0  0
 20 40  1  0  0  0
 21 22  1  0  0  0
 21 41  1  0  0  0
 21 42  1  0  0  0
 22 43  1  0  0  0
 22 44  1  0  0  0
M  END
$$$$
264
                    3D
 Schrodinger Suite 2021-2.
 30 30  0  0  1  0            999 V2000
   -2.1656    2.9417    0.4145 C   0  0  0  0  0  0
   -1.8163    1.4936    0.0636 C   0  0  0  0  0  0
   -0.4059    1.3603    0.0102 O   0  0  0  0  0  0
    0.0105    0.0403   -0.3016 C   0  0  0  0  0  0
    1.5469   -0.0069   -0.3336 C   0  0  2  0  0  0
    1.9611    0.5103   -1.5822 O   0  0  0  0  0  0
    2.0752   -1.4477   -0.2230 C   0  0  0  0  0  0
    3.4977   -1.4795    0.0859 N   0  0  0  0  0  0
    4.1870   -2.7000    0.1251 C   0  0  0  0  0  0
    3.5394   -3.9597    0.1288 C   0  0  0  0  0  0
    4.1989   -5.1378    0.1679 N   0  0  0  0  0  0
    5.5479   -5.1075    0.2056 C   0  0  0  0  0  0
    6.2919   -3.9117    0.2063 C   0  0  0  0  0  0
    8.1937   -3.9491    0.2609 Br  0  0  0  0  0  0
    5.5968   -2.6879    0.1659 C   0  0  0  0  0  0
   -3.2456    3.0807    0.4647 H   0  0  0  0  0  0
   -1.7470    3.2220    1.3813 H   0  0  0  0  0  0
   -1.7740    3.6311   -0.3337 H   0  0  0  0  0  0
   -2.2309    0.8196    0.8146 H   0  0  0  0  0  0
   -2.2564    1.2273   -0.8985 H   0  0  0  0  0  0
   -0.3612   -0.6260    0.4786 H   0  0  0  0  0  0
   -0.4168   -0.3006   -1.2466 H   0  0  0  0  0  0
    1.9484    0.6008    0.4788 H   0  0  0  0  0  0
    1.6399    1.3960   -1.6578 H   0  0  0  0  0  0
    1.5531   -1.9593    0.5862 H   0  0  0  0  0  0
    1.8710   -2.0044   -1.1388 H   0  0  0  0  0  0
    4.0231   -0.6224   -0.0136 H   0  0  0  0  0  0
    2.4631   -4.0410    0.1033 H   0  0  0  0  0  0
    6.0480   -6.0644    0.2362 H   0  0  0  0  0  0
    6.1410   -1.7546    0.1656 H   0  0  0  0  0  0
  1  2  1  0  0  0
  1 16  1  0  0  0
  1 17  1  0  0  0
  1 18  1  0  0  0
  2  3  1  0  0  0
  2 19  1  0  0  0
  2 20  1  0  0  0
  3  4  1  0  0  0
  4  5  1  0  0  0
  4 21  1  0  0  0
  4 22  1  0  0  0
  5  6  1  0  0  0
  5  7  1  0  0  0
  5 23  1  0  0  0
  6 24  1  0  0  0
  7  8  1  0  0  0
  7 25  1  0  0  0
  7 26  1  0  0  0
  8  9  1  0  0  0
  8 27  1  0  0  0
  9 15  1  0  0  0
  9 10  2  0  0  0
 10 11  1  0  0  0
 10 28  1  0  0  0
 11 12  2  0  0  0
 12 13  1  0  0  0
 12 29  1  0  0  0
 13 14  1  0  0  0
 13 15  2  0  0  0
 15 30  1  0  0  0
M  END
$$$$
265
                    3D
 Schrodinger Suite 2021-2.
 46 47  0  0  1  0            999 V2000
   -2.9056    0.4112   -0.0000 O   0  0  0  0  0  0
   -2.0643    1.3113    0.0000 C   0  0  0  0  0  0
   -2.3086    2.6749    0.0000 N   0  0  0  0  0  0
   -3.6411    3.2698    0.0000 C   0  0  1  0  0  0
   -3.8320    4.1216    1.2694 C   0  0  0  0  0  0
   -5.1940    4.8348    1.2684 C   0  0  0  0  0  0
   -5.3721    5.6868    0.0000 C   0  0  2  0  0  0
   -6.6582    6.2695   -0.0000 O   0  0  0  0  0  0
   -5.1940    4.8347   -1.2684 C   0  0  0  0  0  0
   -3.8320    4.1217   -1.2694 C   0  0  0  0  0  0
   -0.7365    1.1218    0.0000 O   0  0  0  0  0  0
   -0.2133   -0.1966    0.0000 C   0  0  0  0  0  0
    1.3182   -0.1366   -0.0000 C   0  0  0  0  0  0
    1.9547   -1.5330    0.0000 C   0  0  0  0  0  0
    3.4893   -1.4804   -0.0000 C   0  0  0  0  0  0
    4.1108   -2.8641    0.0000 C   0  0  0  0  0  0
    4.3988   -3.5118    1.2198 C   0  0  0  0  0  0
    4.9725   -4.7983    1.2195 C   0  0  0  0  0  0
    5.2592   -5.4418    0.0000 C   0  0  0  0  0  0
    4.9725   -4.7983   -1.2194 C   0  0  0  0  0  0
    4.3988   -3.5118   -1.2199 C   0  0  0  0  0  0
   -4.4016    2.4867    0.0000 H   0  0  0  0  0  0
   -4.6385    6.4941   -0.0000 H   0  0  0  0  0  0
   -1.5005    3.2802    0.0000 H   0  0  0  0  0  0
   -3.7469    3.4939    2.1573 H   0  0  0  0  0  0
   -3.0368    4.8655    1.3392 H   0  0  0  0  0  0
   -5.9901    4.0915    1.3317 H   0  0  0  0  0  0
   -5.2831    5.4607    2.1571 H   0  0  0  0  0  0
   -7.3012    5.5769   -0.0000 H   0  0  0  0  0  0
   -5.9901    4.0915   -1.3317 H   0  0  0  0  0  0
   -5.2831    5.4607   -2.1571 H   0  0  0  0  0  0
   -3.0368    4.8654   -1.3392 H   0  0  0  0  0  0
   -3.7469    3.4939   -2.1573 H   0  0  0  0  0  0
   -0.5684   -0.7341    0.8805 H   0  0  0  0  0  0
   -0.5685   -0.7341   -0.8805 H   0  0  0  0  0  0
    1.6587    0.4195   -0.8745 H   0  0  0  0  0  0
    1.6587    0.4195    0.8745 H   0  0  0  0  0  0
    1.6103   -2.0877    0.8739 H   0  0  0  0  0  0
    1.6103   -2.0877   -0.8739 H   0  0  0  0  0  0
    3.8440   -0.9310   -0.8730 H   0  0  0  0  0  0
    3.8440   -0.9309    0.8729 H   0  0  0  0  0  0
    4.1791   -3.0246    2.1587 H   0  0  0  0  0  0
    5.1923   -5.2916    2.1548 H   0  0  0  0  0  0
    5.6990   -6.4283   -0.0000 H   0  0  0  0  0  0
    5.1924   -5.2915   -2.1548 H   0  0  0  0  0  0
    4.1791   -3.0246   -2.1586 H   0  0  0  0  0  0
  1  2  2  0  0  0
  2  3  1  0  0  0
  2 11  1  0  0  0
  3  4  1  0  0  0
  3 24  1  0  0  0
  4 22  1  0  0  0
  4 10  1  0  0  0
  4  5  1  0  0  0
  5  6  1  0  0  0
  5 25  1  0  0  0
  5 26  1  0  0  0
  6  7  1  0  0  0
  6 27  1  0  0  0
  6 28  1  0  0  0
  7 23  1  0  0  0
  7  8  1  0  0  0
  7  9  1  0  0  0
  8 29  1  0  0  0
  9 10  1  0  0  0
  9 30  1  0  0  0
  9 31  1  0  0  0
 10 32  1  0  0  0
 10 33  1  0  0  0
 11 12  1  0  0  0
 12 13  1  0  0  0
 12 34  1  0  0  0
 12 35  1  0  0  0
 13 14  1  0  0  0
 13 36  1  0  0  0
 13 37  1  0  0  0
 14 15  1  0  0  0
 14 38  1  0  0  0
 14 39  1  0  0  0
 15 16  1  0  0  0
 15 40  1  0  0  0
 15 41  1  0  0  0
 16 21  1  0  0  0
 16 17  2  0  0  0
 17 18  1  0  0  0
 17 42  1  0  0  0
 18 19  2  0  0  0
 18 43  1  0  0  0
 19 20  1  0  0  0
 19 44  1  0  0  0
 20 21  2  0  0  0
 20 45  1  0  0  0
 21 46  1  0  0  0
M  END
$$$$
266
                    3D
 Schrodinger Suite 2021-2.
 60 61  0  0  1  0            999 V2000
    1.4063   -1.0532   -4.7959 C   0  0  0  0  0  0
   -0.1107   -1.0472   -4.8903 C   0  0  0  0  0  0
   -0.6644   -1.8755   -6.0336 C   0  0  0  0  0  0
   -0.9298   -0.3747   -4.0564 C   0  0  0  0  0  0
   -0.5337    0.5185   -2.8917 C   0  0  0  0  0  0
   -0.7266   -0.1717   -1.5249 C   0  0  2  0  0  0
   -2.0998   -0.4496   -1.3269 O   0  0  0  0  0  0
   -0.1887    0.6291   -0.3110 C   0  0  2  0  0  0
   -0.8043    2.0404   -0.2094 C   0  0  0  0  0  0
    1.3565    0.6668   -0.2980 C   0  0  0  0  0  0
    1.9644    1.1412    1.0326 C   0  0  0  0  0  0
    3.5052    1.0592    1.0339 C   0  0  0  0  0  0
    4.2227    1.7102    2.2498 C   0  0  2  0  0  0
    5.4189    0.8163    2.6476 C   0  0  0  0  0  0
    3.2977    1.7489    3.3426 O   0  0  0  0  0  0
    3.6863    2.5517    4.4557 C   0  0  0  0  0  0
    4.1601    3.9447    3.9780 C   0  0  2  0  0  0
    4.6265    4.8565    5.1315 C   0  0  0  0  0  0
    3.5125    5.2657    6.1100 C   0  0  0  0  0  0
    4.0360    6.1371    7.0887 O   0  0  0  0  0  0
    3.1576    4.6151    3.0188 C   0  0  0  0  0  0
    3.6567    4.2069    1.6380 C   0  0  0  0  0  0
    4.7273    3.1536    1.9375 C   0  0  1  0  0  0
    5.2750    3.6864    3.1340 O   0  0  0  0  0  0
    5.4830    3.1321    1.1514 H   0  0  0  0  0  0
    1.8356   -0.5026   -5.6330 H   0  0  0  0  0  0
    1.7845   -0.6205   -3.8716 H   0  0  0  0  0  0
    1.7761   -2.0779   -4.8420 H   0  0  0  0  0  0
   -0.2884   -1.5020   -6.9865 H   0  0  0  0  0  0
   -0.3596   -2.9172   -5.9294 H   0  0  0  0  0  0
   -1.7541   -1.8436   -6.0641 H   0  0  0  0  0  0
   -1.9961   -0.4601   -4.2073 H   0  0  0  0  0  0
    0.4943    0.8533   -3.0084 H   0  0  0  0  0  0
   -1.1396    1.4229   -2.9504 H   0  0  0  0  0  0
   -0.2187   -1.1369   -1.5497 H   0  0  0  0  0  0
   -2.3970   -1.0074   -2.0293 H   0  0  0  0  0  0
   -0.4947    0.0796    0.5808 H   0  0  0  0  0  0
   -0.4489    2.6916   -1.0079 H   0  0  0  0  0  0
   -1.8923    2.0068   -0.2679 H   0  0  0  0  0  0
   -0.5561    2.5174    0.7381 H   0  0  0  0  0  0
    1.7378   -0.3334   -0.5078 H   0  0  0  0  0  0
    1.7204    1.3031   -1.1050 H   0  0  0  0  0  0
    1.6342    2.1545    1.2449 H   0  0  0  0  0  0
    1.5741    0.5251    1.8435 H   0  0  0  0  0  0
    3.7597   -0.0003    0.9801 H   0  0  0  0  0  0
    3.9001    1.4903    0.1131 H   0  0  0  0  0  0
    6.1114    0.6963    1.8138 H   0  0  0  0  0  0
    5.9895    1.2276    3.4799 H   0  0  0  0  0  0
    5.0856   -0.1783    2.9453 H   0  0  0  0  0  0
    2.8251    2.6367    5.1175 H   0  0  0  0  0  0
    4.4699    2.0513    5.0251 H   0  0  0  0  0  0
    5.4233    4.3558    5.6833 H   0  0  0  0  0  0
    5.0765    5.7561    4.7091 H   0  0  0  0  0  0
    2.6991    5.7711    5.5891 H   0  0  0  0  0  0
    3.0900    4.3955    6.6118 H   0  0  0  0  0  0
    3.3398    6.3784    7.6805 H   0  0  0  0  0  0
    2.1371    4.2773    3.2030 H   0  0  0  0  0  0
    3.1674    5.7020    3.1088 H   0  0  0  0  0  0
    2.8726    3.8767    0.9615 H   0  0  0  0  0  0
    4.1318    5.0675    1.1655 H   0  0  0  0  0  0
  1  2  1  0  0  0
  1 26  1  0  0  0
  1 27  1  0  0  0
  1 28  1  0  0  0
  2  3  1  0  0  0
  2  4  2  3  0  0
  3 29  1  0  0  0
  3 30  1  0  0  0
  3 31  1  0  0  0
  4  5  1  0  0  0
  4 32  1  0  0  0
  5  6  1  0  0  0
  5 33  1  0  0  0
  5 34  1  0  0  0
  6  7  1  0  0  0
  6  8  1  0  0  0
  6 35  1  0  0  0
  7 36  1  0  0  0
  8  9  1  0  0  0
  8 10  1  0  0  0
  8 37  1  0  0  0
  9 38  1  0  0  0
  9 39  1  0  0  0
  9 40  1  0  0  0
 10 11  1  0  0  0
 10 41  1  0  0  0
 10 42  1  0  0  0
 11 12  1  0  0  0
 11 43  1  0  0  0
 11 44  1  0  0  0
 12 13  1  0  0  0
 12 45  1  0  0  0
 12 46  1  0  0  0
 13 23  1  0  0  0
 13 14  1  0  0  0
 13 15  1  0  0  0
 14 47  1  0  0  0
 14 48  1  0  0  0
 14 49  1  0  0  0
 15 16  1  0  0  0
 16 17  1  0  0  0
 16 50  1  0  0  0
 16 51  1  0  0  0
 17 24  1  0  0  0
 17 18  1  0  0  0
 17 21  1  0  0  0
 18 19  1  0  0  0
 18 52  1  0  0  0
 18 53  1  0  0  0
 19 20  1  0  0  0
 19 54  1  0  0  0
 19 55  1  0  0  0
 20 56  1  0  0  0
 21 22  1  0  0  0
 21 57  1  0  0  0
 21 58  1  0  0  0
 22 23  1  0  0  0
 22 59  1  0  0  0
 22 60  1  0  0  0
 23 25  1  0  0  0
 23 24  1  0  0  0
M  END
$$$$
267
                    3D
 Schrodinger Suite 2021-2.
 49 50  0  0  1  0            999 V2000
   -4.5549    4.9725   -1.7909 C   0  0  0  0  0  0
   -4.1065    3.8922   -1.1344 C   0  0  0  0  0  0
   -3.5378    2.6560   -1.8042 C   0  0  0  0  0  0
   -2.1969    2.3456   -1.3015 N   0  0  0  0  0  0
   -1.0586    2.7919   -1.8583 C   0  0  0  0  0  0
   -0.9594    3.5046   -2.8558 O   0  0  0  0  0  0
   -0.0310    2.3213   -1.1417 N   0  0  0  0  0  0
   -0.4422    1.5447    0.0184 C   0  0  1  0  0  0
    0.0962    0.0957   -0.0944 C   0  0  0  0  0  0
    1.6281   -0.0174    0.0123 C   0  0  0  0  0  0
    2.1169   -1.4676   -0.1108 C   0  0  0  0  0  0
    3.6450   -1.5848   -0.0171 C   0  0  0  0  0  0
    4.1315   -3.0387   -0.1323 C   0  0  0  0  0  0
    5.6548   -3.1952    0.0083 C   0  0  0  0  0  0
    6.4476   -2.6338   -1.1798 C   0  0  0  0  0  0
   -0.0981    2.2115    1.3634 C   0  0  0  0  0  0
   -0.4510    1.5755    2.5780 C   0  0  0  0  0  0
   -0.1391    2.1630    3.8188 C   0  0  0  0  0  0
    0.5340    3.3969    3.8642 C   0  0  0  0  0  0
    0.8949    4.0410    2.6666 C   0  0  0  0  0  0
    1.7240    5.5531    2.7178 Cl  0  0  0  0  0  0
    0.5819    3.4533    1.4255 C   0  0  0  0  0  0
   -1.9504    1.5970   -0.2179 C   0  0  0  0  0  0
   -2.7829    1.0313    0.4922 O   0  0  0  0  0  0
   -4.9523    5.8218   -1.2550 H   0  0  0  0  0  0
   -4.5310    5.0240   -2.8696 H   0  0  0  0  0  0
   -4.1488    3.8764   -0.0550 H   0  0  0  0  0  0
   -4.2127    1.8191   -1.6190 H   0  0  0  0  0  0
   -3.5199    2.7927   -2.8870 H   0  0  0  0  0  0
    0.9380    2.5118   -1.3514 H   0  0  0  0  0  0
   -0.3570   -0.5315    0.6741 H   0  0  0  0  0  0
   -0.2208   -0.3366   -1.0453 H   0  0  0  0  0  0
    2.0967    0.5872   -0.7650 H   0  0  0  0  0  0
    1.9639    0.3926    0.9654 H   0  0  0  0  0  0
    1.6575   -2.0715    0.6727 H   0  0  0  0  0  0
    1.7794   -1.8851   -1.0602 H   0  0  0  0  0  0
    4.0967   -0.9799   -0.8034 H   0  0  0  0  0  0
    3.9832   -1.1636    0.9305 H   0  0  0  0  0  0
    3.6501   -3.6313    0.6465 H   0  0  0  0  0  0
    3.8053   -3.4661   -1.0812 H   0  0  0  0  0  0
    5.9923   -2.7250    0.9326 H   0  0  0  0  0  0
    5.8885   -4.2557    0.1072 H   0  0  0  0  0  0
    7.5135   -2.8272   -1.0578 H   0  0  0  0  0  0
    6.1325   -3.0942   -2.1165 H   0  0  0  0  0  0
    6.3201   -1.5558   -1.2755 H   0  0  0  0  0  0
   -0.9699    0.6285    2.5670 H   0  0  0  0  0  0
   -0.4171    1.6658    4.7365 H   0  0  0  0  0  0
    0.7730    3.8469    4.8166 H   0  0  0  0  0  0
    0.8754    3.9750    0.5270 H   0  0  0  0  0  0
  1  2  2  0  0  0
  1 25  1  0  0  0
  1 26  1  0  0  0
  2  3  1  0  0  0
  2 27  1  0  0  0
  3  4  1  0  0  0
  3 28  1  0  0  0
  3 29  1  0  0  0
  4 23  1  0  0  0
  4  5  1  0  0  0
  5  6  2  0  0  0
  5  7  1  0  0  0
  7  8  1  0  0  0
  7 30  1  0  0  0
  8  9  1  0  0  0
  8 16  1  0  0  0
  8 23  1  0  0  0
  9 10  1  0  0  0
  9 31  1  0  0  0
  9 32  1  0  0  0
 10 11  1  0  0  0
 10 33  1  0  0  0
 10 34  1  0  0  0
 11 12  1  0  0  0
 11 35  1  0  0  0
 11 36  1  0  0  0
 12 13  1  0  0  0
 12 37  1  0  0  0
 12 38  1  0  0  0
 13 14  1  0  0  0
 13 39  1  0  0  0
 13 40  1  0  0  0
 14 15  1  0  0  0
 14 41  1  0  0  0
 14 42  1  0  0  0
 15 43  1  0  0  0
 15 44  1  0  0  0
 15 45  1  0  0  0
 16 22  1  0  0  0
 16 17  2  0  0  0
 17 18  1  0  0  0
 17 46  1  0  0  0
 18 19  2  0  0  0
 18 47  1  0  0  0
 19 20  1  0  0  0
 19 48  1  0  0  0
 20 21  1  0  0  0
 20 22  2  0  0  0
 22 49  1  0  0  0
 23 24  2  0  0  0
M  END
$$$$
268
                    3D
 Schrodinger Suite 2021-2.
 51 51  0  0  1  0            999 V2000
   -6.2782    4.4143   -0.0414 C   0  0  0  0  0  0
   -4.7463    4.3953   -0.0058 C   0  0  0  0  0  0
   -4.1771    2.9709    0.0571 C   0  0  0  0  0  0
   -2.6418    2.9482    0.0678 C   0  0  0  0  0  0
   -2.0754    1.5220    0.1226 C   0  0  0  0  0  0
   -0.5402    1.4941    0.1009 C   0  0  0  0  0  0
    0.0220    0.0663    0.1562 C   0  0  0  0  0  0
    1.5551    0.0313    0.0807 C   0  0  0  0  0  0
    2.1119   -1.3989    0.1150 C   0  0  0  0  0  0
    3.6416   -1.4390   -0.0531 C   0  0  0  0  0  0
    4.2427   -2.8591   -0.0483 C   0  0  0  0  0  0
    3.7390   -3.7400   -1.1933 C   0  0  0  0  0  0
    3.2439   -4.8459   -0.9780 O   0  0  0  0  0  0
    3.9020   -3.1642   -2.4007 O   0  0  0  0  0  0
    3.3981   -3.7786   -3.5829 C   0  0  2  0  0  0
    4.6442   -4.3518   -4.2961 C   0  0  0  0  0  0
    4.1620   -5.3708   -5.9024 Se  0  0  0  0  0  0
    3.3534   -3.5443   -7.0421 Se  0  0  0  0  0  0
    1.9898   -3.1097   -5.6979 C   0  0  0  0  0  0
    2.6206   -2.6755   -4.3560 C   0  0  1  0  0  0
    1.5216   -2.2861   -3.5544 O   0  0  0  0  0  0
    2.7127   -4.5952   -3.3499 H   0  0  0  0  0  0
    3.2603   -1.8066   -4.5158 H   0  0  0  0  0  0
   -6.6527    5.4372   -0.0864 H   0  0  0  0  0  0
   -6.6586    3.8822   -0.9139 H   0  0  0  0  0  0
   -6.6986    3.9444    0.8480 H   0  0  0  0  0  0
   -4.3614    4.9051   -0.8896 H   0  0  0  0  0  0
   -4.3995    4.9668    0.8558 H   0  0  0  0  0  0
   -4.5547    2.4684    0.9485 H   0  0  0  0  0  0
   -4.5405    2.3982   -0.7970 H   0  0  0  0  0  0
   -2.2665    3.4531   -0.8233 H   0  0  0  0  0  0
   -2.2752    3.5178    0.9227 H   0  0  0  0  0  0
   -2.4361    1.0222    1.0225 H   0  0  0  0  0  0
   -2.4582    0.9490   -0.7231 H   0  0  0  0  0  0
   -0.1833    1.9893   -0.8030 H   0  0  0  0  0  0
   -0.1526    2.0700    0.9423 H   0  0  0  0  0  0
   -0.3092   -0.4194    1.0748 H   0  0  0  0  0  0
   -0.3924   -0.5166   -0.6675 H   0  0  0  0  0  0
    1.8792    0.5225   -0.8376 H   0  0  0  0  0  0
    1.9768    0.6072    0.9054 H   0  0  0  0  0  0
    1.8362   -1.8772    1.0556 H   0  0  0  0  0  0
    1.6350   -1.9786   -0.6754 H   0  0  0  0  0  0
    3.9209   -0.9260   -0.9744 H   0  0  0  0  0  0
    4.1017   -0.8667    0.7529 H   0  0  0  0  0  0
    5.3290   -2.7985   -0.1181 H   0  0  0  0  0  0
    4.0178   -3.3503    0.8989 H   0  0  0  0  0  0
    5.3309   -3.5517   -4.5747 H   0  0  0  0  0  0
    5.1883   -5.0205   -3.6284 H   0  0  0  0  0  0
    1.3693   -2.3090   -6.1025 H   0  0  0  0  0  0
    1.3416   -3.9757   -5.5586 H   0  0  0  0  0  0
    1.8519   -1.9750   -2.7252 H   0  0  0  0  0  0
  1  2  1  0  0  0
  1 24  1  0  0  0
  1 25  1  0  0  0
  1 26  1  0  0  0
  2  3  1  0  0  0
  2 27  1  0  0  0
  2 28  1  0  0  0
  3  4  1  0  0  0
  3 29  1  0  0  0
  3 30  1  0  0  0
  4  5  1  0  0  0
  4 31  1  0  0  0
  4 32  1  0  0  0
  5  6  1  0  0  0
  5 33  1  0  0  0
  5 34  1  0  0  0
  6  7  1  0  0  0
  6 35  1  0  0  0
  6 36  1  0  0  0
  7  8  1  0  0  0
  7 37  1  0  0  0
  7 38  1  0  0  0
  8  9  1  0  0  0
  8 39  1  0  0  0
  8 40  1  0  0  0
  9 10  1  0  0  0
  9 41  1  0  0  0
  9 42  1  0  0  0
 10 11  1  0  0  0
 10 43  1  0  0  0
 10 44  1  0  0  0
 11 12  1  0  0  0
 11 45  1  0  0  0
 11 46  1  0  0  0
 12 13  2  0  0  0
 12 14  1  0  0  0
 14 15  1  0  0  0
 15 22  1  0  0  0
 15 20  1  0  0  0
 15 16  1  0  0  0
 16 17  1  0  0  0
 16 47  1  0  0  0
 16 48  1  0  0  0
 17 18  1  0  0  0
 18 19  1  0  0  0
 19 20  1  0  0  0
 19 49  1  0  0  0
 19 50  1  0  0  0
 20 23  1  0  0  0
 20 21  1  0  0  0
 21 51  1  0  0  0
M  END
$$$$
269
                    3D
 Schrodinger Suite 2021-2.
 42 43  0  0  1  0            999 V2000
   -2.3786    1.2708   -1.9045 O   0  0  0  0  0  0
   -2.8039    1.3778   -0.7544 C   0  0  0  0  0  0
   -4.3086    1.4036   -0.4951 C   0  0  0  0  0  0
   -4.9253    2.9931    0.1200 S   0  0  0  0  0  0
   -2.0092    1.4676    0.3236 N   0  0  0  0  0  0
   -0.5515    1.4632    0.2935 C   0  0  0  0  0  0
    0.0098    0.0384    0.1588 C   0  0  0  0  0  0
    1.5446    0.0136    0.1386 C   0  0  0  0  0  0
    2.1059   -1.4056   -0.0239 C   0  0  0  0  0  0
    3.6433   -1.4324   -0.0735 C   0  0  0  0  0  0
    4.2459   -2.8456   -0.1719 C   0  0  0  0  0  0
    3.7707   -3.5805   -1.3323 N   0  0  0  0  0  0
    4.2708   -3.4272   -2.6187 C   0  0  0  0  0  0
    3.6082   -4.2577   -3.4820 C   0  0  0  0  0  0
    2.6404   -4.9692   -2.7013 C   0  0  0  0  0  0
    1.6607   -5.9478   -2.9885 C   0  0  0  0  0  0
    0.8293   -6.4730   -1.9783 C   0  0  0  0  0  0
   -0.3495   -7.6658   -2.3941 Cl  0  0  0  0  0  0
    0.9647   -6.0232   -0.6470 C   0  0  0  0  0  0
   -0.0426   -6.6474    0.6101 Cl  0  0  0  0  0  0
    1.9323   -5.0513   -0.3338 C   0  0  0  0  0  0
    2.7587   -4.5323   -1.3495 C   0  0  0  0  0  0
   -4.8403    1.1594   -1.4155 H   0  0  0  0  0  0
   -4.5595    0.6271    0.2280 H   0  0  0  0  0  0
   -6.2048    2.6197    0.2118 H   0  0  0  0  0  0
   -2.4472    1.5556    1.2292 H   0  0  0  0  0  0
   -0.1932    2.0955   -0.5208 H   0  0  0  0  0  0
   -0.1940    1.9167    1.2183 H   0  0  0  0  0  0
   -0.3535   -0.5760    0.9836 H   0  0  0  0  0  0
   -0.3673   -0.4195   -0.7565 H   0  0  0  0  0  0
    1.9046    0.6402   -0.6784 H   0  0  0  0  0  0
    1.9282    0.4551    1.0592 H   0  0  0  0  0  0
    1.7587   -2.0301    0.8002 H   0  0  0  0  0  0
    1.6993   -1.8430   -0.9362 H   0  0  0  0  0  0
    3.9854   -0.8375   -0.9213 H   0  0  0  0  0  0
    4.0413   -0.9449    0.8170 H   0  0  0  0  0  0
    5.3334   -2.7824   -0.2267 H   0  0  0  0  0  0
    4.0176   -3.4161    0.7287 H   0  0  0  0  0  0
    5.0679   -2.7260   -2.8186 H   0  0  0  0  0  0
    3.7727   -4.3612   -4.5443 H   0  0  0  0  0  0
    1.5474   -6.2974   -4.0041 H   0  0  0  0  0  0
    2.0359   -4.7032    0.6829 H   0  0  0  0  0  0
  1  2  2  0  0  0
  2  3  1  0  0  0
  2  5  1  0  0  0
  3  4  1  0  0  0
  3 23  1  0  0  0
  3 24  1  0  0  0
  4 25  1  0  0  0
  5  6  1  0  0  0
  5 26  1  0  0  0
  6  7  1  0  0  0
  6 27  1  0  0  0
  6 28  1  0  0  0
  7  8  1  0  0  0
  7 29  1  0  0  0
  7 30  1  0  0  0
  8  9  1  0  0  0
  8 31  1  0  0  0
  8 32  1  0  0  0
  9 10  1  0  0  0
  9 33  1  0  0  0
  9 34  1  0  0  0
 10 11  1  0  0  0
 10 35  1  0  0  0
 10 36  1  0  0  0
 11 12  1  0  0  0
 11 37  1  0  0  0
 11 38  1  0  0  0
 12 22  1  0  0  0
 12 13  1  0  0  0
 13 14  2  0  0  0
 13 39  1  0  0  0
 14 15  1  0  0  0
 14 40  1  0  0  0
 15 22  2  0  0  0
 15 16  1  0  0  0
 16 17  2  0  0  0
 16 41  1  0  0  0
 17 18  1  0  0  0
 17 19  1  0  0  0
 19 20  1  0  0  0
 19 21  2  0  0  0
 21 22  1  0  0  0
 21 42  1  0  0  0
M  END
$$$$
270
                    3D
 Schrodinger Suite 2021-2.
 50 52  0  0  1  0            999 V2000
   -1.4412   -2.4204    2.1765 C   0  0  0  0  0  0
   -0.7058   -1.2124    1.5880 C   0  0  0  0  0  0
   -0.6901   -1.2375    0.0488 C   0  0  0  0  0  0
    0.0005   -0.0957   -0.5481 N   0  0  0  0  0  0
   -0.6300    1.2179   -0.4080 C   0  0  0  0  0  0
   -0.1131    2.2672   -1.4122 C   0  0  0  0  0  0
   -0.4097    1.9043   -2.8730 C   0  0  0  0  0  0
    1.4052   -0.1642   -0.4380 C   0  0  0  0  0  0
    2.1251    0.5837    0.4722 C   0  0  0  0  0  0
    3.5404    0.4539    0.5009 C   0  0  0  0  0  0
    4.3183    1.1572    1.3971 N   0  0  0  0  0  0
    4.0283    2.3522    2.0758 C   0  0  0  0  0  0
    3.2035    3.3485    1.5058 C   0  0  0  0  0  0
    2.9402    4.5470    2.1957 C   0  0  0  0  0  0
    3.5110    4.7802    3.4704 C   0  0  0  0  0  0
    3.3066    5.9223    4.2144 O   0  0  0  0  0  0
    2.4605    6.9278    3.6758 C   0  0  0  0  0  0
    4.3499    3.7941    4.0260 C   0  0  0  0  0  0
    4.6151    2.5930    3.3391 C   0  0  0  0  0  0
    5.6567    1.4242    4.0739 Cl  0  0  0  0  0  0
    4.2178   -0.3840   -0.2774 N   0  0  0  0  0  0
    3.5182   -1.1117   -1.1651 C   0  0  0  0  0  0
    3.8823   -2.0337   -2.1100 C   0  0  0  0  0  0
    2.6704   -2.4257   -2.7267 C   0  0  0  0  0  0
    1.6082   -1.8269   -2.2409 N   0  0  0  0  0  0
    2.1099   -1.0068   -1.2562 N   0  0  0  0  0  0
   -1.4474   -2.3786    3.2659 H   0  0  0  0  0  0
   -2.4771   -2.4534    1.8381 H   0  0  0  0  0  0
   -0.9614   -3.3539    1.8812 H   0  0  0  0  0  0
   -1.1837   -0.2992    1.9433 H   0  0  0  0  0  0
    0.3142   -1.1989    1.9728 H   0  0  0  0  0  0
   -0.2334   -2.1654   -0.2962 H   0  0  0  0  0  0
   -1.7138   -1.2517   -0.3266 H   0  0  0  0  0  0
   -1.7064    1.1019   -0.5393 H   0  0  0  0  0  0
   -0.4925    1.5841    0.6093 H   0  0  0  0  0  0
   -0.5895    3.2223   -1.1893 H   0  0  0  0  0  0
    0.9564    2.4353   -1.2856 H   0  0  0  0  0  0
   -0.0797    2.6975   -3.5439 H   0  0  0  0  0  0
    0.1041    0.9883   -3.1665 H   0  0  0  0  0  0
   -1.4779    1.7553   -3.0327 H   0  0  0  0  0  0
    1.6120    1.2409    1.1645 H   0  0  0  0  0  0
    5.2273    0.7567    1.5804 H   0  0  0  0  0  0
    2.7714    3.2102    0.5260 H   0  0  0  0  0  0
    2.3003    5.2748    1.7209 H   0  0  0  0  0  0
    2.3998    7.7602    4.3767 H   0  0  0  0  0  0
    2.8523    7.3174    2.7353 H   0  0  0  0  0  0
    1.4477    6.5541    3.5189 H   0  0  0  0  0  0
    4.7975    3.9628    4.9946 H   0  0  0  0  0  0
    4.8768   -2.3848   -2.3412 H   0  0  0  0  0  0
    2.5530   -3.1414   -3.5273 H   0  0  0  0  0  0
  1  2  1  0  0  0
  1 27  1  0  0  0
  1 28  1  0  0  0
  1 29  1  0  0  0
  2  3  1  0  0  0
  2 30  1  0  0  0
  2 31  1  0  0  0
  3  4  1  0  0  0
  3 32  1  0  0  0
  3 33  1  0  0  0
  4  5  1  0  0  0
  4  8  1  0  0  0
  5  6  1  0  0  0
  5 34  1  0  0  0
  5 35  1  0  0  0
  6  7  1  0  0  0
  6 36  1  0  0  0
  6 37  1  0  0  0
  7 38  1  0  0  0
  7 39  1  0  0  0
  7 40  1  0  0  0
  8 26  1  0  0  0
  8  9  2  0  0  0
  9 10  1  0  0  0
  9 41  1  0  0  0
 10 11  1  0  0  0
 10 21  2  0  0  0
 11 12  1  0  0  0
 11 42  1  0  0  0
 12 19  1  0  0  0
 12 13  2  0  0  0
 13 14  1  0  0  0
 13 43  1  0  0  0
 14 15  2  0  0  0
 14 44  1  0  0  0
 15 16  1  0  0  0
 15 18  1  0  0  0
 16 17  1  0  0  0
 17 45  1  0  0  0
 17 46  1  0  0  0
 17 47  1  0  0  0
 18 19  2  0  0  0
 18 48  1  0  0  0
 19 20  1  0  0  0
 21 22  1  0  0  0
 22 26  1  0  0  0
 22 23  2  0  0  0
 23 24  1  0  0  0
 23 49  1  0  0  0
 24 25  2  0  0  0
 24 50  1  0  0  0
 25 26  1  0  0  0
M  END
$$$$
271
                    3D
 Schrodinger Suite 2021-2.
 47 49  0  0  1  0            999 V2000
   -0.0964    2.5320    0.1558 C   0  0  0  0  0  0
   -0.7305    1.2251    0.1077 N   0  0  0  0  0  0
   -2.0390    0.8983    0.0669 C   0  0  0  0  0  0
   -3.1192    1.9392    0.0634 C   0  0  0  0  0  0
   -4.3751    1.2728    0.0326 O   0  0  0  0  0  0
   -5.5224    2.0375    0.0197 C   0  0  0  0  0  0
   -5.5260    3.4560    0.0212 C   0  0  0  0  0  0
   -6.7413    4.1674    0.0070 C   0  0  0  0  0  0
   -7.9655    3.4742   -0.0084 C   0  0  0  0  0  0
   -9.4537    4.3468   -0.0243 Cl  0  0  0  0  0  0
   -7.9729    2.0675   -0.0107 C   0  0  0  0  0  0
   -6.7587    1.3537    0.0031 C   0  0  0  0  0  0
   -6.7969   -0.3733   -0.0002 Cl  0  0  0  0  0  0
   -2.2584   -0.4204    0.0228 N   0  0  0  0  0  0
   -1.0106   -1.0032    0.0311 N   0  0  0  0  0  0
   -0.1461    0.0117    0.0793 C   0  0  0  0  0  0
    1.5994   -0.1984    0.0857 S   0  0  0  0  0  0
    1.8307   -0.1875   -1.7135 C   0  0  0  0  0  0
    3.3009   -0.2266   -2.1242 C   0  0  0  0  0  0
    4.1029    0.5651   -1.6288 O   0  0  0  0  0  0
    3.6405   -1.1453   -3.0407 N   0  0  0  0  0  0
    4.9799   -1.3308   -3.5878 C   0  0  0  0  0  0
    5.3397   -0.2501   -4.6233 C   0  0  2  0  0  0
    4.3793   -0.1528   -5.8096 C   0  0  0  0  0  0
    5.2680    0.4587   -6.8679 C   0  0  0  0  0  0
    6.5962   -0.2418   -6.5971 C   0  0  0  0  0  0
    6.6147   -0.5222   -5.1993 O   0  0  0  0  0  0
   -0.8284    3.3178    0.3393 H   0  0  0  0  0  0
    0.6415    2.5536    0.9581 H   0  0  0  0  0  0
    0.4041    2.7300   -0.7923 H   0  0  0  0  0  0
   -3.0302    2.5490    0.9637 H   0  0  0  0  0  0
   -2.9958    2.5740   -0.8155 H   0  0  0  0  0  0
   -4.6084    4.0240    0.0328 H   0  0  0  0  0  0
   -6.7320    5.2476    0.0078 H   0  0  0  0  0  0
   -8.9120    1.5337   -0.0231 H   0  0  0  0  0  0
    1.2918   -1.0341   -2.1416 H   0  0  0  0  0  0
    1.3819    0.7169   -2.1249 H   0  0  0  0  0  0
    2.9162   -1.7540   -3.3937 H   0  0  0  0  0  0
    5.7141   -1.3407   -2.7807 H   0  0  0  0  0  0
    5.0197   -2.3165   -4.0522 H   0  0  0  0  0  0
    5.4059    0.7262   -4.1402 H   0  0  0  0  0  0
    4.0525   -1.1450   -6.1244 H   0  0  0  0  0  0
    3.4952    0.4481   -5.5942 H   0  0  0  0  0  0
    4.9010    0.3027   -7.8826 H   0  0  0  0  0  0
    5.3667    1.5320   -6.6992 H   0  0  0  0  0  0
    6.6443   -1.1870   -7.1390 H   0  0  0  0  0  0
    7.4534    0.3623   -6.8951 H   0  0  0  0  0  0
  1  2  1  0  0  0
  1 28  1  0  0  0
  1 29  1  0  0  0
  1 30  1  0  0  0
  2 16  1  0  0  0
  2  3  1  0  0  0
  3  4  1  0  0  0
  3 14  2  0  0  0
  4  5  1  0  0  0
  4 31  1  0  0  0
  4 32  1  0  0  0
  5  6  1  0  0  0
  6 12  1  0  0  0
  6  7  2  0  0  0
  7  8  1  0  0  0
  7 33  1  0  0  0
  8  9  2  0  0  0
  8 34  1  0  0  0
  9 10  1  0  0  0
  9 11  1  0  0  0
 11 12  2  0  0  0
 11 35  1  0  0  0
 12 13  1  0  0  0
 14 15  1  0  0  0
 15 16  2  0  0  0
 16 17  1  0  0  0
 17 18  1  0  0  0
 18 19  1  0  0  0
 18 36  1  0  0  0
 18 37  1  0  0  0
 19 20  2  0  0  0
 19 21  1  0  0  0
 21 22  1  0  0  0
 21 38  1  0  0  0
 22 23  1  0  0  0
 22 39  1  0  0  0
 22 40  1  0  0  0
 23 27  1  0  0  0
 23 24  1  0  0  0
 23 41  1  0  0  0
 24 25  1  0  0  0
 24 42  1  0  0  0
 24 43  1  0  0  0
 25 26  1  0  0  0
 25 44  1  0  0  0
 25 45  1  0  0  0
 26 27  1  0  0  0
 26 46  1  0  0  0
 26 47  1  0  0  0
M  END
$$$$
272
                    3D
 Schrodinger Suite 2021-2.
 63 65  0  0  1  0            999 V2000
   -2.5709    6.2889    0.6124 C   0  0  0  0  0  0
   -2.4322    4.9615    0.1350 O   0  0  0  0  0  0
   -2.7833    4.6615   -1.1297 C   0  0  0  0  0  0
   -3.2504    5.4892   -1.9152 O   0  0  0  0  0  0
   -2.5869    3.2176   -1.4550 C   0  0  0  0  0  0
   -2.3647    2.7688   -2.7261 C   0  0  0  0  0  0
   -2.1562    3.6467   -3.8922 C   0  0  0  0  0  0
   -3.0808    3.6312   -4.9546 C   0  0  0  0  0  0
   -2.8747    4.4508   -6.0813 C   0  0  0  0  0  0
   -1.7360    5.2885   -6.1632 C   0  0  0  0  0  0
   -1.4909    6.1662   -7.3432 C   0  0  0  0  0  0
   -2.5149    6.1395   -8.4765 C   0  0  0  0  0  0
   -0.5121    6.9048   -7.4487 O   0  0  0  0  0  0
   -0.8076    5.2855   -5.0960 C   0  0  0  0  0  0
   -1.0123    4.4669   -3.9691 C   0  0  0  0  0  0
   -2.1942    1.2631   -2.9722 C   0  0  0  0  0  0
   -2.4052    0.4038   -1.7013 C   0  0  2  0  0  0
   -3.8844    0.3548   -1.2807 C   0  0  0  0  0  0
   -4.0492    1.5188   -0.2966 C   0  0  0  0  0  0
   -2.6792    2.2090   -0.2938 C   0  0  1  0  0  0
   -1.7683    1.1106   -0.5928 N   0  0  0  0  0  0
   -0.5252    0.9597   -0.0836 C   0  0  0  0  0  0
   -0.0595    1.7033    0.7803 O   0  0  0  0  0  0
    0.1603   -0.0697   -0.6076 N   0  0  0  0  0  0
    1.5315   -0.4278   -0.2653 C   0  0  0  0  0  0
    2.5482    0.4686   -0.9914 C   0  0  0  0  0  0
    3.9985    0.0878   -0.6729 C   0  0  0  0  0  0
    4.8651    0.9717   -1.3692 O   0  0  0  0  0  0
    6.2500    0.7605   -1.1229 C   0  0  0  0  0  0
    6.9744    2.0660   -1.4716 C   0  0  0  0  0  0
    6.7784   -0.4153   -1.9609 C   0  0  0  0  0  0
   -2.0317   -0.6096   -1.8538 H   0  0  0  0  0  0
   -2.4720    2.6375    0.6870 H   0  0  0  0  0  0
   -2.2443    6.3453    1.6507 H   0  0  0  0  0  0
   -1.9623    6.9782    0.0257 H   0  0  0  0  0  0
   -3.6115    6.6126    0.5646 H   0  0  0  0  0  0
   -3.9531    2.9960   -4.9065 H   0  0  0  0  0  0
   -3.6065    4.4193   -6.8744 H   0  0  0  0  0  0
   -2.5961    5.1360   -8.8945 H   0  0  0  0  0  0
   -3.4948    6.4505   -8.1138 H   0  0  0  0  0  0
   -2.2163    6.8182   -9.2759 H   0  0  0  0  0  0
    0.0736    5.9098   -5.1305 H   0  0  0  0  0  0
   -0.2912    4.4717   -3.1646 H   0  0  0  0  0  0
   -2.8696    0.9389   -3.7647 H   0  0  0  0  0  0
   -1.1814    1.1049   -3.3446 H   0  0  0  0  0  0
   -4.5590    0.4405   -2.1334 H   0  0  0  0  0  0
   -4.1092   -0.5879   -0.7804 H   0  0  0  0  0  0
   -4.8578    2.1945   -0.5788 H   0  0  0  0  0  0
   -4.2766    1.1328    0.6981 H   0  0  0  0  0  0
   -0.2963   -0.6317   -1.3112 H   0  0  0  0  0  0
    1.6740   -0.3736    0.8151 H   0  0  0  0  0  0
    1.6876   -1.4691   -0.5474 H   0  0  0  0  0  0
    2.3867    0.4068   -2.0682 H   0  0  0  0  0  0
    2.3857    1.5109   -0.7144 H   0  0  0  0  0  0
    4.1732    0.1618    0.4015 H   0  0  0  0  0  0
    4.1829   -0.9454   -0.9677 H   0  0  0  0  0  0
    6.4140    0.5579   -0.0632 H   0  0  0  0  0  0
    8.0449    1.9856   -1.2804 H   0  0  0  0  0  0
    6.8402    2.3252   -2.5222 H   0  0  0  0  0  0
    6.5932    2.8942   -0.8737 H   0  0  0  0  0  0
    7.8534   -0.5375   -1.8251 H   0  0  0  0  0  0
    6.3101   -1.3577   -1.6787 H   0  0  0  0  0  0
    6.5936   -0.2553   -3.0235 H   0  0  0  0  0  0
  1  2  1  0  0  0
  1 34  1  0  0  0
  1 35  1  0  0  0
  1 36  1  0  0  0
  2  3  1  0  0  0
  3  4  2  0  0  0
  3  5  1  0  0  0
  5 20  1  0  0  0
  5  6  2  0  0  0
  6  7  1  0  0  0
  6 16  1  0  0  0
  7 15  1  0  0  0
  7  8  2  0  0  0
  8  9  1  0  0  0
  8 37  1  0  0  0
  9 10  2  0  0  0
  9 38  1  0  0  0
 10 11  1  0  0  0
 10 14  1  0  0  0
 11 12  1  0  0  0
 11 13  2  0  0  0
 12 39  1  0  0  0
 12 40  1  0  0  0
 12 41  1  0  0  0
 14 15  2  0  0  0
 14 42  1  0  0  0
 15 43  1  0  0  0
 16 17  1  0  0  0
 16 44  1  0  0  0
 16 45  1  0  0  0
 17 32  1  0  0  0
 17 21  1  0  0  0
 17 18  1  0  0  0
 18 19  1  0  0  0
 18 46  1  0  0  0
 18 47  1  0  0  0
 19 20  1  0  0  0
 19 48  1  0  0  0
 19 49  1  0  0  0
 20 33  1  0  0  0
 20 21  1  0  0  0
 21 22  1  0  0  0
 22 23  2  0  0  0
 22 24  1  0  0  0
 24 25  1  0  0  0
 24 50  1  0  0  0
 25 26  1  0  0  0
 25 51  1  0  0  0
 25 52  1  0  0  0
 26 27  1  0  0  0
 26 53  1  0  0  0
 26 54  1  0  0  0
 27 28  1  0  0  0
 27 55  1  0  0  0
 27 56  1  0  0  0
 28 29  1  0  0  0
 29 30  1  0  0  0
 29 31  1  0  0  0
 29 57  1  0  0  0
 30 58  1  0  0  0
 30 59  1  0  0  0
 30 60  1  0  0  0
 31 61  1  0  0  0
 31 62  1  0  0  0
 31 63  1  0  0  0
M  END
$$$$
273
                    3D
 Schrodinger Suite 2021-2.
 60 62  0  0  1  0            999 V2000
    1.1621   -4.3867    0.8883 C   0  0  0  0  0  0
    0.1076   -3.3434    1.2640 C   0  0  0  0  0  0
    0.3761   -2.1446    0.5576 O   0  0  0  0  0  0
   -0.5587   -1.1165    0.8463 C   0  0  0  0  0  0
   -0.2112    0.1506    0.0474 C   0  0  2  0  0  0
   -0.1505   -0.0660   -1.4839 C   0  0  0  0  0  0
   -1.4737   -0.4800   -2.1635 C   0  0  0  0  0  0
   -1.2444   -0.7215   -3.6639 C   0  0  0  0  0  0
   -2.5948    0.5530   -1.9585 C   0  0  0  0  0  0
    1.0679    0.6877    0.5280 N   0  0  2  0  0  0
    1.2299    2.3740    0.8748 S   0  0  0  0  0  0
    0.1007    2.7739    1.7296 O   0  0  0  0  0  0
    2.6161    2.5999    1.3120 O   0  0  0  0  0  0
    1.0316    3.1035   -0.7449 C   0  0  0  0  0  0
   -0.1855    3.7210   -1.0951 C   0  0  0  0  0  0
   -0.3653    4.2084   -2.4036 C   0  0  0  0  0  0
    0.6640    4.0746   -3.3603 C   0  0  0  0  0  0
    0.4491    4.5523   -4.7857 C   0  0  0  0  0  0
    0.2844    3.4301   -5.6990 N   0  0  0  0  0  0
   -0.8438    2.7275   -5.9705 C   0  0  0  0  0  0
   -2.1536    3.0513   -5.3268 C   0  0  0  0  0  0
   -0.7133    1.7295   -6.8455 N   0  0  0  0  0  0
    0.6267    1.7893   -7.1759 C   0  0  0  0  0  0
    1.3992    0.9954   -8.0613 C   0  0  0  0  0  0
    2.7228    1.2314   -8.2374 N   0  0  0  0  0  0
    3.3268    2.2366   -7.5655 C   0  0  0  0  0  0
    2.6481    3.0787   -6.6677 C   0  0  0  0  0  0
    1.2775    2.8427   -6.4764 C   0  0  0  0  0  0
    1.8900    3.4803   -2.9907 C   0  0  0  0  0  0
    2.0763    2.9934   -1.6830 C   0  0  0  0  0  0
   -0.9779    0.8921    0.2685 H   0  0  0  0  0  0
    0.9828   -5.3268    1.4102 H   0  0  0  0  0  0
    1.1465   -4.5902   -0.1826 H   0  0  0  0  0  0
    2.1631   -4.0434    1.1503 H   0  0  0  0  0  0
   -0.8873   -3.7136    1.0126 H   0  0  0  0  0  0
    0.1316   -3.1609    2.3394 H   0  0  0  0  0  0
   -1.5675   -1.4503    0.6005 H   0  0  0  0  0  0
   -0.5517   -0.8947    1.9149 H   0  0  0  0  0  0
    0.1982    0.8451   -1.9672 H   0  0  0  0  0  0
    0.6110   -0.8153   -1.7040 H   0  0  0  0  0  0
   -1.8045   -1.4256   -1.7336 H   0  0  0  0  0  0
   -0.9095    0.1875   -4.1647 H   0  0  0  0  0  0
   -0.4876   -1.4887   -3.8289 H   0  0  0  0  0  0
   -2.1589   -1.0533   -4.1561 H   0  0  0  0  0  0
   -2.2853    1.5444   -2.2886 H   0  0  0  0  0  0
   -3.4882    0.2794   -2.5206 H   0  0  0  0  0  0
   -2.8893    0.6261   -0.9121 H   0  0  0  0  0  0
    1.8761    0.3028    0.0395 H   0  0  0  0  0  0
   -0.9901    3.7993   -0.3792 H   0  0  0  0  0  0
   -1.3055    4.6650   -2.6759 H   0  0  0  0  0  0
   -0.4229    5.2036   -4.8498 H   0  0  0  0  0  0
    1.3056    5.1483   -5.1023 H   0  0  0  0  0  0
   -2.9405    2.4057   -5.7183 H   0  0  0  0  0  0
   -2.0926    2.8980   -4.2508 H   0  0  0  0  0  0
   -2.4299    4.0870   -5.5245 H   0  0  0  0  0  0
    0.9600    0.1815   -8.6191 H   0  0  0  0  0  0
    4.3821    2.3712   -7.7505 H   0  0  0  0  0  0
    3.1631    3.8725   -6.1475 H   0  0  0  0  0  0
    2.6843    3.3775   -3.7150 H   0  0  0  0  0  0
    3.0052    2.5131   -1.4128 H   0  0  0  0  0  0
  1  2  1  0  0  0
  1 32  1  0  0  0
  1 33  1  0  0  0
  1 34  1  0  0  0
  2  3  1  0  0  0
  2 35  1  0  0  0
  2 36  1  0  0  0
  3  4  1  0  0  0
  4  5  1  0  0  0
  4 37  1  0  0  0
  4 38  1  0  0  0
  5 31  1  0  0  0
  5  6  1  0  0  0
  5 10  1  0  0  0
  6  7  1  0  0  0
  6 39  1  0  0  0
  6 40  1  0  0  0
  7  8  1  0  0  0
  7  9  1  0  0  0
  7 41  1  0  0  0
  8 42  1  0  0  0
  8 43  1  0  0  0
  8 44  1  0  0  0
  9 45  1  0  0  0
  9 46  1  0  0  0
  9 47  1  0  0  0
 10 11  1  0  0  0
 10 48  1  0  0  0
 11 12  2  0  0  0
 11 13  2  0  0  0
 11 14  1  0  0  0
 14 30  1  0  0  0
 14 15  2  0  0  0
 15 16  1  0  0  0
 15 49  1  0  0  0
 16 17  2  0  0  0
 16 50  1  0  0  0
 17 18  1  0  0  0
 17 29  1  0  0  0
 18 19  1  0  0  0
 18 51  1  0  0  0
 18 52  1  0  0  0
 19 28  1  0  0  0
 19 20  1  0  0  0
 20 21  1  0  0  0
 20 22  2  0  0  0
 21 53  1  0  0  0
 21 54  1  0  0  0
 21 55  1  0  0  0
 22 23  1  0  0  0
 23 28  2  0  0  0
 23 24  1  0  0  0
 24 25  2  0  0  0
 24 56  1  0  0  0
 25 26  1  0  0  0
 26 27  2  0  0  0
 26 57  1  0  0  0
 27 28  1  0  0  0
 27 58  1  0  0  0
 29 30  2  0  0  0
 29 59  1  0  0  0
 30 60  1  0  0  0
M  END
$$$$
274
                    3D
 Schrodinger Suite 2021-2.
 54 56  0  0  1  0            999 V2000
   -4.5964   -1.6717    5.2971 C   0  0  0  0  0  0
   -4.4541   -2.3388    3.9437 C   0  0  0  0  0  0
   -4.9246   -1.6935    2.7808 C   0  0  0  0  0  0
   -4.7840   -2.3205    1.5271 C   0  0  0  0  0  0
   -5.3669   -1.4754    0.0609 S   0  0  0  0  0  0
   -5.1629   -2.3234   -1.1242 O   0  0  0  0  0  0
   -6.6788   -0.8750    0.3476 O   0  0  0  0  0  0
   -4.2649   -0.1416   -0.0940 N   0  0  0  0  0  0
   -2.8661   -0.1513   -0.0945 C   0  0  0  0  0  0
   -2.1275   -1.3226   -0.3664 C   0  0  0  0  0  0
   -0.7199   -1.2976   -0.3452 C   0  0  0  0  0  0
   -0.0272   -0.1016   -0.0443 C   0  0  0  0  0  0
    1.4756   -0.0568   -0.0253 C   0  0  0  0  0  0
    2.0800    0.9913   -0.2541 O   0  0  0  0  0  0
    2.0868   -1.2040    0.3126 N   0  0  0  0  0  0
    3.5275   -1.3826    0.4434 C   0  0  0  0  0  0
    4.0042   -1.0432    1.8635 C   0  0  0  0  0  0
    5.5185   -1.2464    2.0344 C   0  0  0  0  0  0
    5.9511   -0.9508    3.3977 N   0  0  0  0  0  0
    6.6345    0.2939    3.7079 C   0  0  0  0  0  0
    7.0854    0.1527    5.1695 C   0  0  0  0  0  0
    6.3793   -1.0952    5.7112 C   0  0  0  0  0  0
    5.7964   -1.7412    4.4664 C   0  0  0  0  0  0
    5.2593   -2.8479    4.4783 O   0  0  0  0  0  0
   -0.7711    1.0732    0.2051 C   0  0  0  0  0  0
   -2.1790    1.0474    0.1801 C   0  0  0  0  0  0
   -4.1806   -3.5897    1.4231 C   0  0  0  0  0  0
   -3.7114   -4.2321    2.5849 C   0  0  0  0  0  0
   -3.8466   -3.6092    3.8419 C   0  0  0  0  0  0
   -3.3893   -4.2359    4.9525 F   0  0  0  0  0  0
   -5.0946   -0.7053    5.2149 H   0  0  0  0  0  0
   -5.1823   -2.2999    5.9685 H   0  0  0  0  0  0
   -3.6153   -1.5115    5.7447 H   0  0  0  0  0  0
   -5.3866   -0.7191    2.8457 H   0  0  0  0  0  0
   -4.6809    0.7722    0.0118 H   0  0  0  0  0  0
   -2.6270   -2.2503   -0.5986 H   0  0  0  0  0  0
   -0.1825   -2.2088   -0.5644 H   0  0  0  0  0  0
    1.5081   -2.0087    0.5051 H   0  0  0  0  0  0
    3.7593   -2.4228    0.2138 H   0  0  0  0  0  0
    4.0569   -0.7775   -0.2946 H   0  0  0  0  0  0
    3.7508   -0.0085    2.0991 H   0  0  0  0  0  0
    3.4642   -1.6638    2.5799 H   0  0  0  0  0  0
    5.7908   -2.2734    1.7855 H   0  0  0  0  0  0
    6.0591   -0.6073    1.3348 H   0  0  0  0  0  0
    7.4825    0.4569    3.0413 H   0  0  0  0  0  0
    5.9406    1.1271    3.5891 H   0  0  0  0  0  0
    8.1669    0.0192    5.2186 H   0  0  0  0  0  0
    6.8392    1.0413    5.7519 H   0  0  0  0  0  0
    7.0683   -1.7689    6.2213 H   0  0  0  0  0  0
    5.5727   -0.8328    6.3967 H   0  0  0  0  0  0
   -0.2676    2.0039    0.4237 H   0  0  0  0  0  0
   -2.7301    1.9544    0.3816 H   0  0  0  0  0  0
   -4.0711   -4.0708    0.4627 H   0  0  0  0  0  0
   -3.2454   -5.2037    2.5124 H   0  0  0  0  0  0
  1  2  1  0  0  0
  1 31  1  0  0  0
  1 32  1  0  0  0
  1 33  1  0  0  0
  2 29  1  0  0  0
  2  3  2  0  0  0
  3  4  1  0  0  0
  3 34  1  0  0  0
  4  5  1  0  0  0
  4 27  2  0  0  0
  5  6  2  0  0  0
  5  7  2  0  0  0
  5  8  1  0  0  0
  8  9  1  0  0  0
  8 35  1  0  0  0
  9 26  1  0  0  0
  9 10  2  0  0  0
 10 11  1  0  0  0
 10 36  1  0  0  0
 11 12  2  0  0  0
 11 37  1  0  0  0
 12 13  1  0  0  0
 12 25  1  0  0  0
 13 14  2  0  0  0
 13 15  1  0  0  0
 15 16  1  0  0  0
 15 38  1  0  0  0
 16 17  1  0  0  0
 16 39  1  0  0  0
 16 40  1  0  0  0
 17 18  1  0  0  0
 17 41  1  0  0  0
 17 42  1  0  0  0
 18 19  1  0  0  0
 18 43  1  0  0  0
 18 44  1  0  0  0
 19 23  1  0  0  0
 19 20  1  0  0  0
 20 21  1  0  0  0
 20 45  1  0  0  0
 20 46  1  0  0  0
 21 22  1  0  0  0
 21 47  1  0  0  0
 21 48  1  0  0  0
 22 23  1  0  0  0
 22 49  1  0  0  0
 22 50  1  0  0  0
 23 24  2  0  0  0
 25 26  2  0  0  0
 25 51  1  0  0  0
 26 52  1  0  0  0
 27 28  1  0  0  0
 27 53  1  0  0  0
 28 29  2  0  0  0
 28 54  1  0  0  0
 29 30  1  0  0  0
M  END
$$$$
275
                    3D
 Schrodinger Suite 2021-2.
 54 56  0  0  1  0            999 V2000
   -7.3294    7.7827   -0.6156 C   0  0  0  0  0  0
   -6.0483    6.9772   -0.5312 C   0  0  0  0  0  0
   -5.3804    6.8339    0.7040 C   0  0  0  0  0  0
   -4.1894    6.0863    0.7826 C   0  0  0  0  0  0
   -3.6673    5.4852   -0.3796 C   0  0  0  0  0  0
   -2.1624    4.5267   -0.2818 S   0  0  0  0  0  0
   -1.5228    4.4810   -1.6059 O   0  0  0  0  0  0
   -1.4081    4.9183    0.9194 O   0  0  0  0  0  0
   -2.7581    2.9270    0.0219 N   0  0  0  0  0  0
   -2.0294    1.7495    0.2128 C   0  0  0  0  0  0
   -2.7259    0.5443    0.4309 C   0  0  0  0  0  0
   -2.0189   -0.6578    0.6200 C   0  0  0  0  0  0
   -0.6114   -0.6595    0.5974 C   0  0  0  0  0  0
    0.1014    0.5426    0.3933 C   0  0  0  0  0  0
    1.6030    0.5244    0.3539 C   0  0  0  0  0  0
    2.2125   -0.4712   -0.0385 O   0  0  0  0  0  0
    2.2096    1.6258    0.8261 N   0  0  0  0  0  0
    3.6525    1.8114    0.9230 C   0  0  0  0  0  0
    4.2275    1.1267    2.1732 C   0  0  0  0  0  0
    5.7477    1.3178    2.2976 C   0  0  0  0  0  0
    6.2802    0.6328    3.4721 N   0  0  0  0  0  0
    7.0142   -0.6139    3.3336 C   0  0  0  0  0  0
    7.2316   -1.1111    4.7701 C   0  0  0  0  0  0
    6.8900    0.0747    5.6793 C   0  0  0  0  0  0
    6.2060    1.0536    4.7404 C   0  0  0  0  0  0
    5.6669    2.0878    5.1316 O   0  0  0  0  0  0
   -0.6174    1.7439    0.1902 C   0  0  0  0  0  0
   -4.3296    5.6187   -1.6156 C   0  0  0  0  0  0
   -5.5203    6.3673   -1.6901 C   0  0  0  0  0  0
   -6.1565    6.4982   -2.8790 F   0  0  0  0  0  0
   -7.6296    8.1586    0.3631 H   0  0  0  0  0  0
   -7.1956    8.6357   -1.2813 H   0  0  0  0  0  0
   -8.1395    7.1661   -1.0053 H   0  0  0  0  0  0
   -5.7785    7.2958    1.5957 H   0  0  0  0  0  0
   -3.6844    5.9777    1.7312 H   0  0  0  0  0  0
   -3.7619    2.8253    0.0568 H   0  0  0  0  0  0
   -3.8061    0.5361    0.4494 H   0  0  0  0  0  0
   -2.5562   -1.5806    0.7819 H   0  0  0  0  0  0
   -0.0835   -1.5910    0.7433 H   0  0  0  0  0  0
    1.6281    2.3862    1.1477 H   0  0  0  0  0  0
    4.1391    1.4355    0.0214 H   0  0  0  0  0  0
    3.8535    2.8823    0.9605 H   0  0  0  0  0  0
    3.7314    1.5218    3.0609 H   0  0  0  0  0  0
    4.0031    0.0594    2.1442 H   0  0  0  0  0  0
    6.2438    0.9364    1.4039 H   0  0  0  0  0  0
    5.9914    2.3798    2.3548 H   0  0  0  0  0  0
    6.4574   -1.3366    2.7356 H   0  0  0  0  0  0
    7.9663   -0.4198    2.8377 H   0  0  0  0  0  0
    6.5622   -1.9458    4.9831 H   0  0  0  0  0  0
    8.2526   -1.4621    4.9247 H   0  0  0  0  0  0
    6.2338   -0.2123    6.5018 H   0  0  0  0  0  0
    7.7894    0.5338    6.0909 H   0  0  0  0  0  0
   -0.0823    2.6650    0.0121 H   0  0  0  0  0  0
   -3.9317    5.1509   -2.5040 H   0  0  0  0  0  0
  1  2  1  0  0  0
  1 31  1  0  0  0
  1 32  1  0  0  0
  1 33  1  0  0  0
  2 29  1  0  0  0
  2  3  2  0  0  0
  3  4  1  0  0  0
  3 34  1  0  0  0
  4  5  2  0  0  0
  4 35  1  0  0  0
  5  6  1  0  0  0
  5 28  1  0  0  0
  6  7  2  0  0  0
  6  8  2  0  0  0
  6  9  1  0  0  0
  9 10  1  0  0  0
  9 36  1  0  0  0
 10 27  1  0  0  0
 10 11  2  0  0  0
 11 12  1  0  0  0
 11 37  1  0  0  0
 12 13  2  0  0  0
 12 38  1  0  0  0
 13 14  1  0  0  0
 13 39  1  0  0  0
 14 15  1  0  0  0
 14 27  2  0  0  0
 15 16  2  0  0  0
 15 17  1  0  0  0
 17 18  1  0  0  0
 17 40  1  0  0  0
 18 19  1  0  0  0
 18 41  1  0  0  0
 18 42  1  0  0  0
 19 20  1  0  0  0
 19 43  1  0  0  0
 19 44  1  0  0  0
 20 21  1  0  0  0
 20 45  1  0  0  0
 20 46  1  0  0  0
 21 25  1  0  0  0
 21 22  1  0  0  0
 22 23  1  0  0  0
 22 47  1  0  0  0
 22 48  1  0  0  0
 23 24  1  0  0  0
 23 49  1  0  0  0
 23 50  1  0  0  0
 24 25  1  0  0  0
 24 51  1  0  0  0
 24 52  1  0  0  0
 25 26  2  0  0  0
 27 53  1  0  0  0
 28 29  2  0  0  0
 28 54  1  0  0  0
 29 30  1  0  0  0
M  END
$$$$
276
                    3D
 Schrodinger Suite 2021-2.
 65 67  0  0  1  0            999 V2000
   -4.0013    4.0444   -1.2242 C   0  0  0  0  0  0
   -3.2336    3.2383   -1.7263 C   0  0  0  0  0  0
   -2.2984    2.2657   -2.3167 C   0  0  0  0  0  0
   -1.6911    1.3919   -1.3194 N   0  0  0  0  0  0
   -0.5637    1.6538   -0.6387 C   0  0  0  0  0  0
    0.0928    2.6845   -0.7865 O   0  0  0  0  0  0
   -0.1143    0.5873    0.3653 C   0  0  0  0  0  0
    1.3831    0.1940    0.2330 C   0  0  2  0  0  0
    1.7603   -0.4888   -1.0924 C   0  0  0  0  0  0
    1.7324   -2.0272   -1.0648 C   0  0  1  0  0  0
    0.2699   -2.5616   -1.0183 C   0  0  0  0  0  0
   -0.3976   -2.6948   -2.0460 O   0  0  0  0  0  0
   -0.1952   -2.8074    0.2274 O   0  0  0  0  0  0
   -1.5160   -3.2895    0.4293 C   0  0  0  0  0  0
   -1.5628   -4.8174    0.3017 C   0  0  0  0  0  0
    2.4040   -2.5272   -2.3795 C   0  0  0  0  0  0
    2.6557   -4.0413   -2.3732 C   0  0  0  0  0  0
    3.5809   -4.4332   -1.2161 C   0  0  0  0  0  0
    3.3334   -3.6323    0.0507 C   0  0  0  0  0  0
    2.5292   -2.5440    0.1527 C   0  0  0  0  0  0
    2.3763   -1.8346    1.3831 N   0  0  0  0  0  0
    2.7980   -2.4908    2.6407 C   0  0  0  0  0  0
    4.2467   -2.1246    3.0234 C   0  0  0  0  0  0
    4.7105   -2.8158    4.2940 C   0  0  0  0  0  0
    4.9541   -2.1318    5.4289 C   0  0  0  0  0  0
    5.4034   -2.7710    6.7311 C   0  0  0  0  0  0
    5.2288   -4.2990    6.7253 C   0  0  0  0  0  0
    5.6868   -4.9041    5.3923 C   0  0  0  0  0  0
    4.8845   -4.3286    4.2115 C   0  0  0  0  0  0
    1.8765   -0.5673    1.4766 C   0  0  0  0  0  0
    1.7991    0.0293    2.5531 O   0  0  0  0  0  0
    1.9461    1.1288    0.2549 H   0  0  0  0  0  0
   -4.6687    4.7497   -0.7821 H   0  0  0  0  0  0
   -2.8545    1.6546   -3.0276 H   0  0  0  0  0  0
   -1.5405    2.8080   -2.8843 H   0  0  0  0  0  0
   -2.1647    0.5197   -1.1323 H   0  0  0  0  0  0
   -0.3131    0.9959    1.3569 H   0  0  0  0  0  0
   -0.7570   -0.2866    0.2776 H   0  0  0  0  0  0
    1.1413   -0.1197   -1.9110 H   0  0  0  0  0  0
    2.7714   -0.1638   -1.3428 H   0  0  0  0  0  0
   -1.8325   -2.9983    1.4308 H   0  0  0  0  0  0
   -2.2137   -2.8196   -0.2656 H   0  0  0  0  0  0
   -2.5691   -5.1903    0.4928 H   0  0  0  0  0  0
   -1.2725   -5.1421   -0.6978 H   0  0  0  0  0  0
   -0.8897   -5.2901    1.0172 H   0  0  0  0  0  0
    1.8128   -2.2534   -3.2547 H   0  0  0  0  0  0
    3.3642   -2.0278   -2.5184 H   0  0  0  0  0  0
    1.7124   -4.5812   -2.2875 H   0  0  0  0  0  0
    3.0957   -4.3555   -3.3201 H   0  0  0  0  0  0
    3.4786   -5.4966   -0.9984 H   0  0  0  0  0  0
    4.6193   -4.2702   -1.5058 H   0  0  0  0  0  0
    3.9125   -3.9860    0.8886 H   0  0  0  0  0  0
    2.1311   -2.2237    3.4627 H   0  0  0  0  0  0
    2.6677   -3.5702    2.5715 H   0  0  0  0  0  0
    4.9363   -2.3807    2.2191 H   0  0  0  0  0  0
    4.3278   -1.0448    3.1540 H   0  0  0  0  0  0
    4.8389   -1.0576    5.4443 H   0  0  0  0  0  0
    6.4506   -2.5118    6.8889 H   0  0  0  0  0  0
    4.8406   -2.3365    7.5576 H   0  0  0  0  0  0
    5.7815   -4.7406    7.5550 H   0  0  0  0  0  0
    4.1788   -4.5463    6.8871 H   0  0  0  0  0  0
    6.7474   -4.6928    5.2490 H   0  0  0  0  0  0
    5.5893   -5.9899    5.4148 H   0  0  0  0  0  0
    3.8952   -4.7858    4.1851 H   0  0  0  0  0  0
    5.3779   -4.5895    3.2747 H   0  0  0  0  0  0
  1  2  3  0  0  0
  1 33  1  0  0  0
  2  3  1  0  0  0
  3  4  1  0  0  0
  3 34  1  0  0  0
  3 35  1  0  0  0
  4  5  1  0  0  0
  4 36  1  0  0  0
  5  6  2  0  0  0
  5  7  1  0  0  0
  7  8  1  0  0  0
  7 37  1  0  0  0
  7 38  1  0  0  0
  8 32  1  0  0  0
  8 30  1  0  0  0
  8  9  1  0  0  0
  9 10  1  0  0  0
  9 39  1  0  0  0
  9 40  1  0  0  0
 10 20  1  0  0  0
 10 11  1  0  0  0
 10 16  1  0  0  0
 11 12  2  0  0  0
 11 13  1  0  0  0
 13 14  1  0  0  0
 14 15  1  0  0  0
 14 41  1  0  0  0
 14 42  1  0  0  0
 15 43  1  0  0  0
 15 44  1  0  0  0
 15 45  1  0  0  0
 16 17  1  0  0  0
 16 46  1  0  0  0
 16 47  1  0  0  0
 17 18  1  0  0  0
 17 48  1  0  0  0
 17 49  1  0  0  0
 18 19  1  0  0  0
 18 50  1  0  0  0
 18 51  1  0  0  0
 19 20  2  0  0  0
 19 52  1  0  0  0
 20 21  1  0  0  0
 21 22  1  0  0  0
 21 30  1  0  0  0
 22 23  1  0  0  0
 22 53  1  0  0  0
 22 54  1  0  0  0
 23 24  1  0  0  0
 23 55  1  0  0  0
 23 56  1  0  0  0
 24 29  1  0  0  0
 24 25  2  0  0  0
 25 26  1  0  0  0
 25 57  1  0  0  0
 26 27  1  0  0  0
 26 58  1  0  0  0
 26 59  1  0  0  0
 27 28  1  0  0  0
 27 60  1  0  0  0
 27 61  1  0  0  0
 28 29  1  0  0  0
 28 62  1  0  0  0
 28 63  1  0  0  0
 29 64  1  0  0  0
 29 65  1  0  0  0
 30 31  2  0  0  0
M  END
$$$$
277
                    3D
 Schrodinger Suite 2021-2.
 52 54  0  0  1  0            999 V2000
   -5.7342   -4.4575    0.1302 C   0  0  0  0  0  0
   -4.6971   -3.7426   -0.7489 C   0  0  0  0  0  0
   -4.2429   -2.4032   -0.1607 C   0  0  0  0  0  0
   -5.0684   -1.6532    0.3610 O   0  0  0  0  0  0
   -2.9279   -2.1350   -0.2693 N   0  0  0  0  0  0
   -2.2222   -0.9885    0.1828 C   0  0  0  0  0  0
   -0.8271   -1.0213   -0.0359 C   0  0  0  0  0  0
   -0.0260    0.0630    0.3771 C   0  0  0  0  0  0
    1.4183    0.0325    0.1837 C   0  0  0  0  0  0
    2.3781   -0.7813    0.7499 C   0  0  0  0  0  0
    2.2762   -1.8539    1.7488 C   0  0  0  0  0  0
    3.2047   -2.9200    1.7455 C   0  0  0  0  0  0
    3.1096   -3.9567    2.6942 C   0  0  0  0  0  0
    2.0831   -3.9388    3.6566 C   0  0  0  0  0  0
    1.9905   -4.9351    4.5684 F   0  0  0  0  0  0
    1.1538   -2.8823    3.6700 C   0  0  0  0  0  0
    1.2512   -1.8454    2.7220 C   0  0  0  0  0  0
    3.6104   -0.4302    0.2046 N   0  0  0  0  0  0
    3.3713    0.5534   -0.6561 C   0  0  0  0  0  0
    4.6126    1.3490   -1.6351 S   0  0  0  0  0  0
    6.0816    0.4350   -1.0865 C   0  0  0  0  0  0
    2.0652    0.8793   -0.7188 N   0  0  0  0  0  0
    1.4439    1.8869   -1.5735 C   0  0  0  0  0  0
    0.8366    1.2710   -2.8420 C   0  0  0  0  0  0
    1.8392    0.5778   -3.5672 O   0  0  0  0  0  0
    1.3369   -0.0347   -4.7410 C   0  0  0  0  0  0
   -0.6572    1.1529    1.0076 C   0  0  0  0  0  0
   -2.0517    1.1101    1.1846 C   0  0  0  0  0  0
   -2.8146    0.0719    0.7852 N   0  0  0  0  0  0
   -6.0083   -5.4195   -0.3030 H   0  0  0  0  0  0
   -5.3432   -4.6460    1.1308 H   0  0  0  0  0  0
   -6.6483   -3.8712    0.2302 H   0  0  0  0  0  0
   -3.8342   -4.3952   -0.8900 H   0  0  0  0  0  0
   -5.1161   -3.5605   -1.7389 H   0  0  0  0  0  0
   -2.3647   -2.8408   -0.7207 H   0  0  0  0  0  0
   -0.3680   -1.8743   -0.5150 H   0  0  0  0  0  0
    3.9961   -2.9529    1.0109 H   0  0  0  0  0  0
    3.8244   -4.7663    2.6816 H   0  0  0  0  0  0
    0.3663   -2.8649    4.4090 H   0  0  0  0  0  0
    0.5342   -1.0396    2.7579 H   0  0  0  0  0  0
    6.9664    0.8117   -1.5991 H   0  0  0  0  0  0
    6.2324    0.5552   -0.0135 H   0  0  0  0  0  0
    5.9818   -0.6267   -1.3125 H   0  0  0  0  0  0
    0.6765    2.4133   -1.0081 H   0  0  0  0  0  0
    2.1788    2.6452   -1.8413 H   0  0  0  0  0  0
    0.0299    0.5865   -2.5754 H   0  0  0  0  0  0
    0.4037    2.0570   -3.4623 H   0  0  0  0  0  0
    2.1464   -0.5474   -5.2603 H   0  0  0  0  0  0
    0.5692   -0.7720   -4.5030 H   0  0  0  0  0  0
    0.9142    0.7048   -5.4223 H   0  0  0  0  0  0
   -0.0855    2.0025    1.3511 H   0  0  0  0  0  0
   -2.5681    1.9290    1.6630 H   0  0  0  0  0  0
  1  2  1  0  0  0
  1 30  1  0  0  0
  1 31  1  0  0  0
  1 32  1  0  0  0
  2  3  1  0  0  0
  2 33  1  0  0  0
  2 34  1  0  0  0
  3  4  2  0  0  0
  3  5  1  0  0  0
  5  6  1  0  0  0
  5 35  1  0  0  0
  6 29  1  0  0  0
  6  7  2  0  0  0
  7  8  1  0  0  0
  7 36  1  0  0  0
  8  9  1  0  0  0
  8 27  2  0  0  0
  9 22  1  0  0  0
  9 10  2  0  0  0
 10 11  1  0  0  0
 10 18  1  0  0  0
 11 17  1  0  0  0
 11 12  2  0  0  0
 12 13  1  0  0  0
 12 37  1  0  0  0
 13 14  2  0  0  0
 13 38  1  0  0  0
 14 15  1  0  0  0
 14 16  1  0  0  0
 16 17  2  0  0  0
 16 39  1  0  0  0
 17 40  1  0  0  0
 18 19  2  0  0  0
 19 20  1  0  0  0
 19 22  1  0  0  0
 20 21  1  0  0  0
 21 41  1  0  0  0
 21 42  1  0  0  0
 21 43  1  0  0  0
 22 23  1  0  0  0
 23 24  1  0  0  0
 23 44  1  0  0  0
 23 45  1  0  0  0
 24 25  1  0  0  0
 24 46  1  0  0  0
 24 47  1  0  0  0
 25 26  1  0  0  0
 26 48  1  0  0  0
 26 49  1  0  0  0
 26 50  1  0  0  0
 27 28  1  0  0  0
 27 51  1  0  0  0
 28 29  2  0  0  0
 28 52  1  0  0  0
M  END
$$$$
278
                    3D
 Schrodinger Suite 2021-2.
 56 57  0  0  1  0            999 V2000
   -1.1858    3.4423    1.8381 C   0  0  0  0  0  0
   -2.0734    2.3792    1.5255 O   0  0  0  0  0  0
   -1.5499    1.2306    0.9675 C   0  0  0  0  0  0
   -0.1685    1.0394    0.7273 C   0  0  0  0  0  0
    0.2962   -0.1602    0.1596 C   0  0  0  0  0  0
    1.7804   -0.3637   -0.0844 C   0  0  0  0  0  0
    2.4723   -0.9880    1.1257 C   0  0  0  0  0  0
    2.9526   -2.1206    1.0789 O   0  0  0  0  0  0
    2.4787   -0.1710    2.1927 O   0  0  0  0  0  0
    3.0398   -0.6043    3.4241 C   0  0  0  0  0  0
    2.8616    0.4950    4.4721 C   0  0  0  0  0  0
    3.7962    0.7872    5.2177 O   0  0  0  0  0  0
    1.6576    1.0888    4.5286 N   0  0  0  0  0  0
    1.2719    2.1511    5.4541 C   0  0  0  0  0  0
   -0.2534    2.0724    5.6602 C   0  0  0  0  0  0
   -0.8537    3.1508    6.5783 C   0  0  0  0  0  0
   -0.9206    4.5314    5.9063 C   0  0  0  0  0  0
    0.3501    5.3885    6.0370 C   0  0  0  0  0  0
    1.6916    4.6377    5.9793 C   0  0  0  0  0  0
    1.7771    3.5163    4.9312 C   0  0  0  0  0  0
   -0.6164   -1.1779   -0.1705 C   0  0  0  0  0  0
   -2.0051   -1.0131    0.0600 C   0  0  0  0  0  0
   -2.9225   -2.0094   -0.2070 O   0  0  0  0  0  0
   -2.4698   -3.2199   -0.7969 C   0  0  0  0  0  0
   -2.4668    0.2121    0.6184 C   0  0  0  0  0  0
   -3.7944    0.4749    0.8834 O   0  0  0  0  0  0
   -4.7504    0.1039   -0.0999 C   0  0  0  0  0  0
   -1.7483    4.2635    2.2820 H   0  0  0  0  0  0
   -0.4321    3.1319    2.5607 H   0  0  0  0  0  0
   -0.6917    3.8240    0.9438 H   0  0  0  0  0  0
    0.5576    1.7982    0.9768 H   0  0  0  0  0  0
    1.9236   -1.0031   -0.9562 H   0  0  0  0  0  0
    2.2487    0.5945   -0.3108 H   0  0  0  0  0  0
    2.5454   -1.5116    3.7753 H   0  0  0  0  0  0
    4.1014   -0.8260    3.3001 H   0  0  0  0  0  0
    0.9516    0.7785    3.8766 H   0  0  0  0  0  0
    1.7471    1.9494    6.4161 H   0  0  0  0  0  0
   -0.7633    2.0952    4.6964 H   0  0  0  0  0  0
   -0.4885    1.0966    6.0875 H   0  0  0  0  0  0
   -1.8732    2.8470    6.8184 H   0  0  0  0  0  0
   -0.3260    3.1997    7.5314 H   0  0  0  0  0  0
   -1.1710    4.4084    4.8522 H   0  0  0  0  0  0
   -1.7512    5.0950    6.3324 H   0  0  0  0  0  0
    0.3298    6.1480    5.2547 H   0  0  0  0  0  0
    0.3129    5.9383    6.9782 H   0  0  0  0  0  0
    2.4737    5.3702    5.7760 H   0  0  0  0  0  0
    1.9300    4.2336    6.9638 H   0  0  0  0  0  0
    2.8281    3.4135    4.6583 H   0  0  0  0  0  0
    1.2644    3.8052    4.0140 H   0  0  0  0  0  0
   -0.2197   -2.0900   -0.5895 H   0  0  0  0  0  0
   -3.3227   -3.8772   -0.9650 H   0  0  0  0  0  0
   -1.9971   -3.0420   -1.7640 H   0  0  0  0  0  0
   -1.7737   -3.7469   -0.1432 H   0  0  0  0  0  0
   -5.6026    0.7807   -0.0413 H   0  0  0  0  0  0
   -4.3488    0.1678   -1.1127 H   0  0  0  0  0  0
   -5.1255   -0.9043    0.0762 H   0  0  0  0  0  0
  1  2  1  0  0  0
  1 28  1  0  0  0
  1 29  1  0  0  0
  1 30  1  0  0  0
  2  3  1  0  0  0
  3 25  1  0  0  0
  3  4  2  0  0  0
  4  5  1  0  0  0
  4 31  1  0  0  0
  5  6  1  0  0  0
  5 21  2  0  0  0
  6  7  1  0  0  0
  6 32  1  0  0  0
  6 33  1  0  0  0
  7  8  2  0  0  0
  7  9  1  0  0  0
  9 10  1  0  0  0
 10 11  1  0  0  0
 10 34  1  0  0  0
 10 35  1  0  0  0
 11 12  2  0  0  0
 11 13  1  0  0  0
 13 14  1  0  0  0
 13 36  1  0  0  0
 14 20  1  0  0  0
 14 15  1  0  0  0
 14 37  1  0  0  0
 15 16  1  0  0  0
 15 38  1  0  0  0
 15 39  1  0  0  0
 16 17  1  0  0  0
 16 40  1  0  0  0
 16 41  1  0  0  0
 17 18  1  0  0  0
 17 42  1  0  0  0
 17 43  1  0  0  0
 18 19  1  0  0  0
 18 44  1  0  0  0
 18 45  1  0  0  0
 19 20  1  0  0  0
 19 46  1  0  0  0
 19 47  1  0  0  0
 20 48  1  0  0  0
 20 49  1  0  0  0
 21 22  1  0  0  0
 21 50  1  0  0  0
 22 23  1  0  0  0
 22 25  2  0  0  0
 23 24  1  0  0  0
 24 51  1  0  0  0
 24 52  1  0  0  0
 24 53  1  0  0  0
 25 26  1  0  0  0
 26 27  1  0  0  0
 27 54  1  0  0  0
 27 55  1  0  0  0
 27 56  1  0  0  0
M  END
$$$$
279
                    3D
 Schrodinger Suite 2021-2.
 60 62  0  0  1  0            999 V2000
   -6.1682   -2.2361   -1.3960 C   0  0  0  0  0  0
   -5.0035   -1.5764   -1.4830 C   0  0  0  0  0  0
   -4.3624   -0.8071   -0.3427 C   0  0  0  0  0  0
   -2.9983   -1.3576    0.0679 C   0  0  0  0  0  0
   -2.4746   -2.5404   -0.3282 C   0  0  0  0  0  0
   -1.1024   -3.0457    0.1274 C   0  0  1  0  0  0
   -1.0358   -4.4722    0.0881 O   0  0  0  0  0  0
   -1.9121   -5.1761    0.9604 C   0  0  0  0  0  0
   -0.0042   -2.4014   -0.7519 C   0  0  1  0  0  0
   -0.2320   -2.5001   -2.2720 C   0  0  0  0  0  0
    0.0828   -0.9434   -0.2196 C   0  0  2  0  0  0
    1.5015   -0.3627   -0.2289 C   0  0  0  0  0  0
    1.7638    0.7960   -0.9873 C   0  0  0  0  0  0
    3.0556    1.3764   -1.0293 C   0  0  0  0  0  0
    3.3444    2.4835   -1.8022 O   0  0  0  0  0  0
    2.2978    3.1041   -2.5349 C   0  0  0  0  0  0
    4.1003    0.7775   -0.2729 C   0  0  0  0  0  0
    5.3925    1.2590   -0.2356 O   0  0  0  0  0  0
    5.5786    2.6647   -0.1514 C   0  0  0  0  0  0
    3.8567   -0.4005    0.4678 C   0  0  0  0  0  0
    4.9264   -0.9383    1.1547 O   0  0  0  0  0  0
    4.7137   -2.1081    1.9314 C   0  0  0  0  0  0
    2.5578   -0.9610    0.4847 C   0  0  0  0  0  0
   -0.6822   -0.9457    1.1573 C   0  0  2  0  0  0
   -0.0440   -0.2577    2.2473 O   0  0  0  0  0  0
    0.0986    1.1598    2.1930 C   0  0  0  0  0  0
   -2.1630   -0.4921    0.9433 C   0  0  0  0  0  0
   -2.6109    0.5176    1.4851 O   0  0  0  0  0  0
   -0.7963   -2.4461    1.5207 C   0  0  2  0  0  0
    0.4248   -2.9529    2.0288 O   0  0  0  0  0  0
    0.9281   -2.9231   -0.5334 H   0  0  0  0  0  0
   -0.4879   -0.3206   -0.9110 H   0  0  0  0  0  0
   -1.5800   -2.6449    2.2549 H   0  0  0  0  0  0
   -6.5702   -2.7652   -2.2474 H   0  0  0  0  0  0
   -6.7348   -2.2579   -0.4766 H   0  0  0  0  0  0
   -4.4657   -1.5785   -2.4203 H   0  0  0  0  0  0
   -4.2559    0.2301   -0.6633 H   0  0  0  0  0  0
   -5.0221   -0.8073    0.5261 H   0  0  0  0  0  0
   -3.0265   -3.2004   -0.9805 H   0  0  0  0  0  0
   -1.7925   -6.2468    0.7963 H   0  0  0  0  0  0
   -1.6825   -4.9808    2.0077 H   0  0  0  0  0  0
   -2.9589   -4.9322    0.7794 H   0  0  0  0  0  0
   -1.1205   -1.9568   -2.5940 H   0  0  0  0  0  0
    0.6172   -2.0846   -2.8148 H   0  0  0  0  0  0
   -0.3445   -3.5390   -2.5821 H   0  0  0  0  0  0
    0.9475    1.2288   -1.5443 H   0  0  0  0  0  0
    2.6972    3.9682   -3.0656 H   0  0  0  0  0  0
    1.8752    2.4284   -3.2796 H   0  0  0  0  0  0
    1.5055    3.4610   -1.8755 H   0  0  0  0  0  0
    6.5134    2.8687    0.3706 H   0  0  0  0  0  0
    5.6572    3.1111   -1.1427 H   0  0  0  0  0  0
    4.7781    3.1561    0.4039 H   0  0  0  0  0  0
    5.6477   -2.3921    2.4158 H   0  0  0  0  0  0
    3.9748   -1.9384    2.7157 H   0  0  0  0  0  0
    4.3970   -2.9467    1.3100 H   0  0  0  0  0  0
    2.3633   -1.8583    1.0432 H   0  0  0  0  0  0
    0.1430    1.5481    1.1764 H   0  0  0  0  0  0
   -0.7222    1.6535    2.7121 H   0  0  0  0  0  0
    1.0180    1.4457    2.7034 H   0  0  0  0  0  0
    0.6353   -2.4810    2.8202 H   0  0  0  0  0  0
  1  2  2  0  0  0
  1 34  1  0  0  0
  1 35  1  0  0  0
  2  3  1  0  0  0
  2 36  1  0  0  0
  3  4  1  0  0  0
  3 37  1  0  0  0
  3 38  1  0  0  0
  4 27  1  0  0  0
  4  5  2  0  0  0
  5  6  1  0  0  0
  5 39  1  0  0  0
  6 29  1  0  0  0
  6  7  1  0  0  0
  6  9  1  0  0  0
  7  8  1  0  0  0
  8 40  1  0  0  0
  8 41  1  0  0  0
  8 42  1  0  0  0
  9 31  1  0  0  0
  9 10  1  0  0  0
  9 11  1  0  0  0
 10 43  1  0  0  0
 10 44  1  0  0  0
 10 45  1  0  0  0
 11 32  1  0  0  0
 11 12  1  0  0  0
 11 24  1  0  0  0
 12 23  1  0  0  0
 12 13  2  0  0  0
 13 14  1  0  0  0
 13 46  1  0  0  0
 14 15  1  0  0  0
 14 17  2  0  0  0
 15 16  1  0  0  0
 16 47  1  0  0  0
 16 48  1  0  0  0
 16 49  1  0  0  0
 17 18  1  0  0  0
 17 20  1  0  0  0
 18 19  1  0  0  0
 19 50  1  0  0  0
 19 51  1  0  0  0
 19 52  1  0  0  0
 20 21  1  0  0  0
 20 23  2  0  0  0
 21 22  1  0  0  0
 22 53  1  0  0  0
 22 54  1  0  0  0
 22 55  1  0  0  0
 23 56  1  0  0  0
 24 25  1  0  0  0
 24 27  1  0  0  0
 24 29  1  0  0  0
 25 26  1  0  0  0
 26 57  1  0  0  0
 26 58  1  0  0  0
 26 59  1  0  0  0
 27 28  2  0  0  0
 29 33  1  0  0  0
 29 30  1  0  0  0
 30 60  1  0  0  0
M  END
$$$$
280
                    3D
 Schrodinger Suite 2021-2.
 50 51  0  0  1  0            999 V2000
   -8.5911   -2.3472    0.7331 C   0  0  0  0  0  0
   -7.1827   -2.3710    0.5776 O   0  0  0  0  0  0
   -6.5078   -1.2148    0.4833 C   0  0  0  0  0  0
   -7.0028   -0.0868    0.5174 O   0  0  0  0  0  0
   -5.0057   -1.4372    0.3201 C   0  0  0  0  0  0
   -4.3400   -0.1826    0.2924 O   0  0  0  0  0  0
   -2.9709   -0.1802    0.1315 C   0  0  0  0  0  0
   -2.1957   -1.3609   -0.0038 C   0  0  0  0  0  0
   -0.8000   -1.2866   -0.1714 C   0  0  0  0  0  0
   -0.1695   -0.0291   -0.2037 C   0  0  0  0  0  0
    1.5987    0.0881   -0.4400 S   0  0  0  0  0  0
    2.1220    1.0501    0.5417 O   0  0  0  0  0  0
    2.1651   -1.2663   -0.5350 O   0  0  0  0  0  0
    1.7062    0.8346   -1.9945 N   0  0  1  0  0  0
    1.3290    0.0985   -3.2044 C   0  0  0  0  0  0
    2.4856   -0.7539   -3.7620 C   0  0  0  0  0  0
    3.5980    0.0549   -4.4158 C   0  0  0  0  0  0
    3.7664    0.0744   -5.7529 C   0  0  0  0  0  0
    4.8540    0.8573   -6.4681 C   0  0  0  0  0  0
    5.5430    1.8803   -5.5497 C   0  0  0  0  0  0
    5.8249    1.2806   -4.1667 C   0  0  0  0  0  0
    4.5240    0.8270   -3.4811 C   0  0  0  0  0  0
   -0.9229    1.1511   -0.0696 C   0  0  0  0  0  0
   -2.3208    1.0764    0.0996 C   0  0  0  0  0  0
   -3.1269    2.3538    0.2437 C   0  0  0  0  0  0
   -8.9714   -3.3646    0.8231 H   0  0  0  0  0  0
   -8.8750   -1.7975    1.6315 H   0  0  0  0  0  0
   -9.0692   -1.8798   -0.1286 H   0  0  0  0  0  0
   -4.6409   -2.0411    1.1519 H   0  0  0  0  0  0
   -4.8267   -1.9817   -0.6079 H   0  0  0  0  0  0
   -2.6497   -2.3401    0.0154 H   0  0  0  0  0  0
   -0.2248   -2.1942   -0.2783 H   0  0  0  0  0  0
    1.3870    1.8030   -1.9902 H   0  0  0  0  0  0
    0.4719   -0.5366   -2.9790 H   0  0  0  0  0  0
    0.9958    0.8109   -3.9596 H   0  0  0  0  0  0
    2.9144   -1.3944   -2.9921 H   0  0  0  0  0  0
    2.0726   -1.4339   -4.5079 H   0  0  0  0  0  0
    3.1083   -0.5033   -6.3856 H   0  0  0  0  0  0
    5.5844    0.1437   -6.8505 H   0  0  0  0  0  0
    4.4237    1.3646   -7.3319 H   0  0  0  0  0  0
    6.4674    2.2314   -6.0091 H   0  0  0  0  0  0
    4.9028    2.7562   -5.4354 H   0  0  0  0  0  0
    6.4972    0.4282   -4.2744 H   0  0  0  0  0  0
    6.3435    2.0048   -3.5377 H   0  0  0  0  0  0
    3.9886    1.7017   -3.1124 H   0  0  0  0  0  0
    4.7637    0.2125   -2.6126 H   0  0  0  0  0  0
   -0.4272    2.1104   -0.0994 H   0  0  0  0  0  0
   -2.4820    3.2326    0.2688 H   0  0  0  0  0  0
   -3.8164    2.4617   -0.5940 H   0  0  0  0  0  0
   -3.7075    2.3347    1.1665 H   0  0  0  0  0  0
  1  2  1  0  0  0
  1 26  1  0  0  0
  1 27  1  0  0  0
  1 28  1  0  0  0
  2  3  1  0  0  0
  3  4  2  0  0  0
  3  5  1  0  0  0
  5  6  1  0  0  0
  5 29  1  0  0  0
  5 30  1  0  0  0
  6  7  1  0  0  0
  7 24  1  0  0  0
  7  8  2  0  0  0
  8  9  1  0  0  0
  8 31  1  0  0  0
  9 10  2  0  0  0
  9 32  1  0  0  0
 10 11  1  0  0  0
 10 23  1  0  0  0
 11 12  2  0  0  0
 11 13  2  0  0  0
 11 14  1  0  0  0
 14 15  1  0  0  0
 14 33  1  0  0  0
 15 16  1  0  0  0
 15 34  1  0  0  0
 15 35  1  0  0  0
 16 17  1  0  0  0
 16 36  1  0  0  0
 16 37  1  0  0  0
 17 22  1  0  0  0
 17 18  2  0  0  0
 18 19  1  0  0  0
 18 38  1  0  0  0
 19 20  1  0  0  0
 19 39  1  0  0  0
 19 40  1  0  0  0
 20 21  1  0  0  0
 20 41  1  0  0  0
 20 42  1  0  0  0
 21 22  1  0  0  0
 21 43  1  0  0  0
 21 44  1  0  0  0
 22 45  1  0  0  0
 22 46  1  0  0  0
 23 24  2  0  0  0
 23 47  1  0  0  0
 24 25  1  0  0  0
 25 48  1  0  0  0
 25 49  1  0  0  0
 25 50  1  0  0  0
M  END
$$$$
281
                    3D
 Schrodinger Suite 2021-2.
 54 56  0  0  1  0            999 V2000
   -1.4279    3.4592   -4.0749 C   0  0  0  0  0  0
   -0.2965    3.4696   -3.0440 C   0  0  0  0  0  0
   -0.6618    2.6520   -1.9454 O   0  0  0  0  0  0
    0.1885    2.4981   -0.9177 C   0  0  0  0  0  0
    1.2971    3.0235   -0.8121 O   0  0  0  0  0  0
   -0.3604    1.5648    0.1677 C   0  0  0  0  0  0
   -0.0414    0.0504   -0.0175 C   0  0  0  0  0  0
    1.4255   -0.0747   -0.0375 N   0  0  0  0  0  0
    2.1961   -1.1730   -0.1452 C   0  0  0  0  0  0
    1.7667   -2.3219   -0.2526 O   0  0  0  0  0  0
    3.6707   -0.9029   -0.0998 C   0  0  0  0  0  0
    4.6109   -1.9710   -0.0439 C   0  0  0  0  0  0
    5.8206   -1.3378   -0.0018 C   0  0  0  0  0  0
    7.2214   -1.8565    0.0773 C   0  0  0  0  0  0
    8.0933   -0.7389    0.1729 O   0  0  0  0  0  0
    9.4548   -0.9348    0.2981 C   0  0  0  0  0  0
   10.1185   -2.1946    0.3148 C   0  0  0  0  0  0
    9.4484   -3.3659    0.2008 F   0  0  0  0  0  0
   11.5199   -2.2532    0.4528 C   0  0  0  0  0  0
   12.2769   -1.0745    0.5734 C   0  0  0  0  0  0
   11.6304    0.1731    0.5553 C   0  0  0  0  0  0
   10.2310    0.2391    0.4188 C   0  0  0  0  0  0
    9.6241    1.4502    0.4046 F   0  0  0  0  0  0
    5.6418    0.0105   -0.0411 O   0  0  0  0  0  0
    4.2700    0.2785   -0.1040 N   0  0  0  0  0  0
   -0.6202   -0.7308    1.1963 C   0  0  0  0  0  0
   -2.1600   -0.7706    1.2118 C   0  0  0  0  0  0
   -2.7223   -1.3241   -0.1056 C   0  0  0  0  0  0
   -2.1915   -0.5386   -1.3138 C   0  0  0  0  0  0
   -0.6532   -0.5223   -1.3312 C   0  0  0  0  0  0
   -1.1748    4.0794   -4.9350 H   0  0  0  0  0  0
   -1.6191    2.4484   -4.4360 H   0  0  0  0  0  0
   -2.3532    3.8442   -3.6455 H   0  0  0  0  0  0
    0.6240    3.0959   -3.4944 H   0  0  0  0  0  0
   -0.1078    4.4883   -2.7024 H   0  0  0  0  0  0
    0.0404    1.9029    1.1239 H   0  0  0  0  0  0
   -1.4359    1.7258    0.2270 H   0  0  0  0  0  0
    1.9271    0.7985    0.0449 H   0  0  0  0  0  0
    4.4287   -3.0354   -0.0285 H   0  0  0  0  0  0
    7.3190   -2.4965    0.9550 H   0  0  0  0  0  0
    7.4432   -2.4422   -0.8156 H   0  0  0  0  0  0
   12.0175   -3.2118    0.4662 H   0  0  0  0  0  0
   13.3505   -1.1273    0.6787 H   0  0  0  0  0  0
   12.2072    1.0816    0.6465 H   0  0  0  0  0  0
   -0.2708   -1.7628    1.1895 H   0  0  0  0  0  0
   -0.2551   -0.3008    2.1299 H   0  0  0  0  0  0
   -2.5008   -1.3879    2.0433 H   0  0  0  0  0  0
   -2.5625    0.2258    1.3943 H   0  0  0  0  0  0
   -2.4469   -2.3748   -0.2053 H   0  0  0  0  0  0
   -3.8121   -1.2908   -0.0886 H   0  0  0  0  0  0
   -2.5634   -0.9875   -2.2352 H   0  0  0  0  0  0
   -2.5797    0.4799   -1.2951 H   0  0  0  0  0  0
   -0.2963    0.0243   -2.2039 H   0  0  0  0  0  0
   -0.3243   -1.5496   -1.4849 H   0  0  0  0  0  0
  1  2  1  0  0  0
  1 31  1  0  0  0
  1 32  1  0  0  0
  1 33  1  0  0  0
  2  3  1  0  0  0
  2 34  1  0  0  0
  2 35  1  0  0  0
  3  4  1  0  0  0
  4  5  2  0  0  0
  4  6  1  0  0  0
  6  7  1  0  0  0
  6 36  1  0  0  0
  6 37  1  0  0  0
  7 30  1  0  0  0
  7  8  1  0  0  0
  7 26  1  0  0  0
  8  9  1  0  0  0
  8 38  1  0  0  0
  9 10  2  0  0  0
  9 11  1  0  0  0
 11 25  2  0  0  0
 11 12  1  0  0  0
 12 13  2  0  0  0
 12 39  1  0  0  0
 13 14  1  0  0  0
 13 24  1  0  0  0
 14 15  1  0  0  0
 14 40  1  0  0  0
 14 41  1  0  0  0
 15 16  1  0  0  0
 16 22  1  0  0  0
 16 17  2  0  0  0
 17 18  1  0  0  0
 17 19  1  0  0  0
 19 20  2  0  0  0
 19 42  1  0  0  0
 20 21  1  0  0  0
 20 43  1  0  0  0
 21 22  2  0  0  0
 21 44  1  0  0  0
 22 23  1  0  0  0
 24 25  1  0  0  0
 26 27  1  0  0  0
 26 45  1  0  0  0
 26 46  1  0  0  0
 27 28  1  0  0  0
 27 47  1  0  0  0
 27 48  1  0  0  0
 28 29  1  0  0  0
 28 49  1  0  0  0
 28 50  1  0  0  0
 29 30  1  0  0  0
 29 51  1  0  0  0
 29 52  1  0  0  0
 30 53  1  0  0  0
 30 54  1  0  0  0
M  END
$$$$
282
                    3D
 Schrodinger Suite 2021-2.
 54 56  0  0  1  0            999 V2000
   -4.7681    1.3208    0.3583 C   0  0  0  0  0  0
   -4.1775    0.2433    1.2705 C   0  0  0  0  0  0
   -2.9242   -0.1718    0.7533 O   0  0  0  0  0  0
   -2.2015   -1.1015    1.4086 C   0  0  0  0  0  0
   -2.5637   -1.6447    2.4560 O   0  0  0  0  0  0
   -0.8832   -1.4240    0.7121 C   0  0  1  0  0  0
   -0.0458   -2.4061    1.4819 C   0  0  0  0  0  0
    0.7249   -2.0514    2.3751 O   0  0  0  0  0  0
   -0.2330   -3.6932    1.1410 N   0  0  0  0  0  0
    0.4471   -4.7956    1.7122 C   0  0  0  0  0  0
   -0.3224   -5.7650    2.3883 C   0  0  0  0  0  0
    0.2987   -6.8875    2.9678 C   0  0  0  0  0  0
    1.6921   -7.0528    2.8617 C   0  0  0  0  0  0
    2.4624   -6.1023    2.1646 C   0  0  0  0  0  0
    1.8489   -4.9761    1.5795 C   0  0  0  0  0  0
    2.8361   -3.8723    0.6820 Cl  0  0  0  0  0  0
   -0.8487   -1.4999   -0.8066 C   0  0  0  0  0  0
   -0.1789   -0.3386   -0.1048 C   0  0  2  0  0  0
    1.3150   -0.1590   -0.1039 C   0  0  0  0  0  0
    2.1121   -0.6334   -1.1659 C   0  0  0  0  0  0
    3.5207   -0.4914   -1.1378 C   0  0  0  0  0  0
    4.3557   -0.9385   -2.1411 O   0  0  0  0  0  0
    3.7796   -1.6342   -3.2366 C   0  0  0  0  0  0
    4.1211    0.1438   -0.0273 C   0  0  0  0  0  0
    5.4833    0.2875    0.0275 O   0  0  0  0  0  0
    6.1530   -0.8809    0.4733 C   0  0  0  0  0  0
    3.3381    0.6521    1.0310 C   0  0  0  0  0  0
    4.0048    1.2676    2.0700 O   0  0  0  0  0  0
    3.2427    1.7374    3.1720 C   0  0  0  0  0  0
    1.9323    0.4967    0.9790 C   0  0  0  0  0  0
   -0.6560    0.6368   -0.1816 H   0  0  0  0  0  0
   -5.7328    1.6609    0.7346 H   0  0  0  0  0  0
   -4.1090    2.1869    0.2979 H   0  0  0  0  0  0
   -4.9183    0.9405   -0.6521 H   0  0  0  0  0  0
   -4.0504    0.6372    2.2799 H   0  0  0  0  0  0
   -4.8541   -0.6101    1.3314 H   0  0  0  0  0  0
   -0.9846   -3.9032    0.5004 H   0  0  0  0  0  0
   -1.3926   -5.6439    2.4761 H   0  0  0  0  0  0
   -0.2938   -7.6214    3.4939 H   0  0  0  0  0  0
    2.1690   -7.9136    3.3070 H   0  0  0  0  0  0
    3.5290   -6.2440    2.0703 H   0  0  0  0  0  0
   -0.2194   -2.2646   -1.2581 H   0  0  0  0  0  0
   -1.7782   -1.3100   -1.3397 H   0  0  0  0  0  0
    1.6231   -1.1126   -1.9993 H   0  0  0  0  0  0
    4.5696   -1.9433   -3.9209 H   0  0  0  0  0  0
    3.2579   -2.5340   -2.9078 H   0  0  0  0  0  0
    3.0910   -0.9987   -3.7949 H   0  0  0  0  0  0
    7.2217   -0.6821    0.5500 H   0  0  0  0  0  0
    5.7971   -1.1864    1.4584 H   0  0  0  0  0  0
    6.0158   -1.7125   -0.2186 H   0  0  0  0  0  0
    3.9128    2.1768    3.9107 H   0  0  0  0  0  0
    2.5357    2.5104    2.8679 H   0  0  0  0  0  0
    2.7028    0.9243    3.6594 H   0  0  0  0  0  0
    1.2994    0.8590    1.7749 H   0  0  0  0  0  0
  1  2  1  0  0  0
  1 32  1  0  0  0
  1 33  1  0  0  0
  1 34  1  0  0  0
  2  3  1  0  0  0
  2 35  1  0  0  0
  2 36  1  0  0  0
  3  4  1  0  0  0
  4  5  2  0  0  0
  4  6  1  0  0  0
  6 18  1  0  0  0
  6  7  1  0  0  0
  6 17  1  0  0  0
  7  8  2  0  0  0
  7  9  1  0  0  0
  9 10  1  0  0  0
  9 37  1  0  0  0
 10 15  1  0  0  0
 10 11  2  0  0  0
 11 12  1  0  0  0
 11 38  1  0  0  0
 12 13  2  0  0  0
 12 39  1  0  0  0
 13 14  1  0  0  0
 13 40  1  0  0  0
 14 15  2  0  0  0
 14 41  1  0  0  0
 15 16  1  0  0  0
 17 18  1  0  0  0
 17 42  1  0  0  0
 17 43  1  0  0  0
 18 31  1  0  0  0
 18 19  1  0  0  0
 19 30  1  0  0  0
 19 20  2  0  0  0
 20 21  1  0  0  0
 20 44  1  0  0  0
 21 22  1  0  0  0
 21 24  2  0  0  0
 22 23  1  0  0  0
 23 45  1  0  0  0
 23 46  1  0  0  0
 23 47  1  0  0  0
 24 25  1  0  0  0
 24 27  1  0  0  0
 25 26  1  0  0  0
 26 48  1  0  0  0
 26 49  1  0  0  0
 26 50  1  0  0  0
 27 28  1  0  0  0
 27 30  2  0  0  0
 28 29  1  0  0  0
 29 51  1  0  0  0
 29 52  1  0  0  0
 29 53  1  0  0  0
 30 54  1  0  0  0
M  END
$$$$
283
                    3D
 Schrodinger Suite 2021-2.
 61 64  0  0  1  0            999 V2000
   -1.0539   -1.0375    0.8589 O   0  0  0  0  0  0
   -0.4247   -0.0530    0.4696 C   0  0  0  0  0  0
    1.0671   -0.1641    0.3415 C   0  0  0  0  0  0
    1.8507   -0.4010    1.4884 C   0  0  0  0  0  0
    3.2513   -0.4918    1.3830 C   0  0  0  0  0  0
    3.8984   -0.3633    0.1368 C   0  0  0  0  0  0
    5.2776   -0.4544    0.1605 O   0  0  0  0  0  0
    6.0787   -0.3061   -1.0139 C   0  0  0  0  0  0
    6.0421    1.1180   -1.6311 C   0  0  0  0  0  0
    6.8697    1.1801   -2.9273 C   0  0  0  0  0  0
    6.4105    0.1128   -3.8240 N   0  0  0  0  0  0
    5.5709    0.3501   -4.8624 C   0  0  0  0  0  0
    5.2008    1.4864   -5.1612 O   0  0  0  0  0  0
    5.1111   -0.8364   -5.6507 C   0  0  0  0  0  0
    3.8663   -0.6894   -6.5071 C   0  0  0  0  0  0
    3.8056   -1.4764   -5.2248 C   0  0  0  0  0  0
    6.7671   -1.2106   -3.2941 C   0  0  0  0  0  0
    5.9312   -1.4710   -2.0286 C   0  0  0  0  0  0
    3.1004   -0.1578   -1.0172 C   0  0  0  0  0  0
    1.6992   -0.0673   -0.9155 C   0  0  0  0  0  0
   -1.0147    1.1355    0.1720 N   0  0  0  0  0  0
   -2.4755    1.2817    0.2612 C   0  0  0  0  0  0
   -3.1683    0.7545   -1.0058 C   0  0  0  0  0  0
   -4.5639    0.9303   -0.8962 O   0  0  0  0  0  0
   -0.2838    2.3645   -0.1911 C   0  0  0  0  0  0
    0.5814    2.9325    0.9267 C   0  0  0  0  0  0
    0.0640    3.0818    2.2321 C   0  0  0  0  0  0
    0.8763    3.5943    3.2621 C   0  0  0  0  0  0
    2.2088    3.9615    2.9927 C   0  0  0  0  0  0
    2.7279    3.8190    1.6916 C   0  0  0  0  0  0
    1.9155    3.3092    0.6605 C   0  0  0  0  0  0
    1.3828   -0.4947    2.4579 H   0  0  0  0  0  0
    3.8385   -0.6567    2.2744 H   0  0  0  0  0  0
    7.0955   -0.4081   -0.6324 H   0  0  0  0  0  0
    5.0300    1.4474   -1.8521 H   0  0  0  0  0  0
    6.4316    1.8381   -0.9109 H   0  0  0  0  0  0
    6.7930    2.1709   -3.3776 H   0  0  0  0  0  0
    7.9284    1.0419   -2.7036 H   0  0  0  0  0  0
    5.8892   -1.4784   -6.0598 H   0  0  0  0  0  0
    3.3451    0.2661   -6.5262 H   0  0  0  0  0  0
    3.8453   -1.2409   -7.4448 H   0  0  0  0  0  0
    3.7456   -2.5609   -5.2880 H   0  0  0  0  0  0
    3.2646   -1.0325   -4.3906 H   0  0  0  0  0  0
    6.6296   -2.0230   -4.0057 H   0  0  0  0  0  0
    7.8293   -1.2262   -3.0459 H   0  0  0  0  0  0
    6.2518   -2.4027   -1.5618 H   0  0  0  0  0  0
    4.8980   -1.6362   -2.3228 H   0  0  0  0  0  0
    3.5274   -0.0594   -2.0009 H   0  0  0  0  0  0
    1.1129    0.0866   -1.8098 H   0  0  0  0  0  0
   -2.8536    0.7555    1.1399 H   0  0  0  0  0  0
   -2.7504    2.3247    0.4247 H   0  0  0  0  0  0
   -2.8130    1.2889   -1.8876 H   0  0  0  0  0  0
   -2.9571   -0.3044   -1.1580 H   0  0  0  0  0  0
   -4.8723    0.4297   -0.1561 H   0  0  0  0  0  0
    0.3182    2.1877   -1.0815 H   0  0  0  0  0  0
   -0.9742    3.1526   -0.4928 H   0  0  0  0  0  0
   -0.9562    2.8009    2.4491 H   0  0  0  0  0  0
    0.4771    3.7043    4.2597 H   0  0  0  0  0  0
    2.8320    4.3525    3.7835 H   0  0  0  0  0  0
    3.7502    4.0997    1.4846 H   0  0  0  0  0  0
    2.3248    3.1980   -0.3329 H   0  0  0  0  0  0
  1  2  2  0  0  0
  2  3  1  0  0  0
  2 21  1  0  0  0
  3 20  1  0  0  0
  3  4  2  0  0  0
  4  5  1  0  0  0
  4 32  1  0  0  0
  5  6  2  0  0  0
  5 33  1  0  0  0
  6  7  1  0  0  0
  6 19  1  0  0  0
  7  8  1  0  0  0
  8 18  1  0  0  0
  8  9  1  0  0  0
  8 34  1  0  0  0
  9 10  1  0  0  0
  9 35  1  0  0  0
  9 36  1  0  0  0
 10 11  1  0  0  0
 10 37  1  0  0  0
 10 38  1  0  0  0
 11 12  1  0  0  0
 11 17  1  0  0  0
 12 13  2  0  0  0
 12 14  1  0  0  0
 14 16  1  0  0  0
 14 15  1  0  0  0
 14 39  1  0  0  0
 15 16  1  0  0  0
 15 40  1  0  0  0
 15 41  1  0  0  0
 16 42  1  0  0  0
 16 43  1  0  0  0
 17 18  1  0  0  0
 17 44  1  0  0  0
 17 45  1  0  0  0
 18 46  1  0  0  0
 18 47  1  0  0  0
 19 20  2  0  0  0
 19 48  1  0  0  0
 20 49  1  0  0  0
 21 22  1  0  0  0
 21 25  1  0  0  0
 22 23  1  0  0  0
 22 50  1  0  0  0
 22 51  1  0  0  0
 23 24  1  0  0  0
 23 52  1  0  0  0
 23 53  1  0  0  0
 24 54  1  0  0  0
 25 26  1  0  0  0
 25 55  1  0  0  0
 25 56  1  0  0  0
 26 31  1  0  0  0
 26 27  2  0  0  0
 27 28  1  0  0  0
 27 57  1  0  0  0
 28 29  2  0  0  0
 28 58  1  0  0  0
 29 30  1  0  0  0
 29 59  1  0  0  0
 30 31  2  0  0  0
 30 60  1  0  0  0
 31 61  1  0  0  0
M  END
$$$$
284
                    3D
 Schrodinger Suite 2021-2.
 64 66  0  0  1  0            999 V2000
   -0.2720    3.2917   -1.3857 C   0  0  0  0  0  0
   -0.3015    2.6285   -0.0016 C   0  0  0  0  0  0
   -0.6487    1.1986   -0.0960 N   0  0  0  0  0  0
   -2.0865    0.9238    0.0473 C   0  0  0  0  0  0
   -2.4196    0.3806    1.4445 C   0  0  0  0  0  0
    0.2217    0.1852   -0.3594 C   0  0  0  0  0  0
   -0.1583   -0.9599   -0.6061 O   0  0  0  0  0  0
    1.6394    0.5260   -0.2889 C   0  0  0  0  0  0
    2.2718    0.6936    0.9038 C   0  0  0  0  0  0
    1.5659    0.5433    2.2584 C   0  0  0  0  0  0
    3.6706    0.9574    0.9471 N   0  0  0  0  0  0
    4.2748    1.6071    2.1306 C   0  0  0  0  0  0
    5.1265    0.6962    3.0118 C   0  0  0  0  0  0
    4.8886   -0.6930    3.0959 C   0  0  0  0  0  0
    5.6999   -1.5067    3.9085 C   0  0  0  0  0  0
    6.7582   -0.9538    4.6571 C   0  0  0  0  0  0
    7.5050   -1.8221    5.4242 O   0  0  0  0  0  0
    8.5853   -1.2889    6.1759 C   0  0  0  0  0  0
    6.9892    0.4423    4.5803 C   0  0  0  0  0  0
    6.1773    1.2561    3.7665 C   0  0  0  0  0  0
    4.4772    0.6905   -0.1180 C   0  0  0  0  0  0
    5.6830    0.9473   -0.1334 O   0  0  0  0  0  0
    3.8550    0.0330   -1.3695 C   0  0  1  0  0  0
    3.9208   -1.5246   -1.4188 C   0  0  0  0  0  0
    5.0777   -2.1980   -0.6687 C   0  0  0  0  0  0
    4.8951   -2.6544    0.4594 O   0  0  0  0  0  0
    6.2511   -2.2609   -1.3139 N   0  0  0  0  0  0
    7.4510   -2.8293   -0.7915 C   0  0  0  0  0  0
    8.7585   -2.1558   -1.1465 C   0  0  0  0  0  0
    8.4056   -3.4782   -1.7700 C   0  0  0  0  0  0
    2.4230    0.5467   -1.5878 C   0  0  0  0  0  0
   -0.0286    4.3510   -1.3014 H   0  0  0  0  0  0
    0.4706    2.8328   -2.0372 H   0  0  0  0  0  0
   -1.2411    3.2133   -1.8793 H   0  0  0  0  0  0
    0.6512    2.7916    0.4993 H   0  0  0  0  0  0
   -1.0269    3.1442    0.6290 H   0  0  0  0  0  0
   -2.6706    1.8265   -0.1369 H   0  0  0  0  0  0
   -2.4190    0.2164   -0.7143 H   0  0  0  0  0  0
   -3.4910    0.2067    1.5455 H   0  0  0  0  0  0
   -1.9120   -0.5650    1.6372 H   0  0  0  0  0  0
   -2.1221    1.0854    2.2213 H   0  0  0  0  0  0
    0.8532   -0.2812    2.2385 H   0  0  0  0  0  0
    2.2405    0.3167    3.0814 H   0  0  0  0  0  0
    1.0196    1.4533    2.5068 H   0  0  0  0  0  0
    4.9014    2.4350    1.7928 H   0  0  0  0  0  0
    3.5282    2.1002    2.7520 H   0  0  0  0  0  0
    4.0855   -1.1492    2.5370 H   0  0  0  0  0  0
    5.5076   -2.5685    3.9556 H   0  0  0  0  0  0
    9.0747   -2.0950    6.7225 H   0  0  0  0  0  0
    9.3325   -0.8282    5.5282 H   0  0  0  0  0  0
    8.2401   -0.5567    6.9071 H   0  0  0  0  0  0
    7.7854    0.9144    5.1353 H   0  0  0  0  0  0
    6.3706    2.3178    3.7190 H   0  0  0  0  0  0
    4.4466    0.3851   -2.2160 H   0  0  0  0  0  0
    2.9975   -1.9354   -1.0073 H   0  0  0  0  0  0
    3.9409   -1.8529   -2.4590 H   0  0  0  0  0  0
    6.3037   -1.8606   -2.2392 H   0  0  0  0  0  0
    7.4012   -3.2815    0.1981 H   0  0  0  0  0  0
    8.7197   -1.2730   -1.7821 H   0  0  0  0  0  0
    9.5393   -2.1494   -0.3887 H   0  0  0  0  0  0
    8.9518   -4.3560   -1.4300 H   0  0  0  0  0  0
    8.1318   -3.4798   -2.8234 H   0  0  0  0  0  0
    1.9219   -0.0450   -2.3558 H   0  0  0  0  0  0
    2.4489    1.5728   -1.9558 H   0  0  0  0  0  0
  1  2  1  0  0  0
  1 32  1  0  0  0
  1 33  1  0  0  0
  1 34  1  0  0  0
  2  3  1  0  0  0
  2 35  1  0  0  0
  2 36  1  0  0  0
  3  4  1  0  0  0
  3  6  1  0  0  0
  4  5  1  0  0  0
  4 37  1  0  0  0
  4 38  1  0  0  0
  5 39  1  0  0  0
  5 40  1  0  0  0
  5 41  1  0  0  0
  6  7  2  0  0  0
  6  8  1  0  0  0
  8 31  1  0  0  0
  8  9  2  0  0  0
  9 10  1  0  0  0
  9 11  1  0  0  0
 10 42  1  0  0  0
 10 43  1  0  0  0
 10 44  1  0  0  0
 11 12  1  0  0  0
 11 21  1  0  0  0
 12 13  1  0  0  0
 12 45  1  0  0  0
 12 46  1  0  0  0
 13 20  1  0  0  0
 13 14  2  0  0  0
 14 15  1  0  0  0
 14 47  1  0  0  0
 15 16  2  0  0  0
 15 48  1  0  0  0
 16 17  1  0  0  0
 16 19  1  0  0  0
 17 18  1  0  0  0
 18 49  1  0  0  0
 18 50  1  0  0  0
 18 51  1  0  0  0
 19 20  2  0  0  0
 19 52  1  0  0  0
 20 53  1  0  0  0
 21 22  2  0  0  0
 21 23  1  0  0  0
 23 24  1  0  0  0
 23 31  1  0  0  0
 23 54  1  0  0  0
 24 25  1  0  0  0
 24 55  1  0  0  0
 24 56  1  0  0  0
 25 26  2  0  0  0
 25 27  1  0  0  0
 27 28  1  0  0  0
 27 57  1  0  0  0
 28 30  1  0  0  0
 28 29  1  0  0  0
 28 58  1  0  0  0
 29 30  1  0  0  0
 29 59  1  0  0  0
 29 60  1  0  0  0
 30 61  1  0  0  0
 30 62  1  0  0  0
 31 63  1  0  0  0
 31 64  1  0  0  0
M  END
$$$$
285
                    3D
 Schrodinger Suite 2021-2.
 62 63  0  0  1  0            999 V2000
   -3.3712    3.5064    3.4220 C   0  0  0  0  0  0
   -3.3924    2.8980    2.0127 C   0  0  0  0  0  0
   -4.4049    1.7423    1.9479 C   0  0  0  0  0  0
   -1.9704    2.4601    1.5931 C   0  0  0  0  0  0
   -1.8132    1.9749    0.1299 C   0  0  1  0  0  0
   -2.2463    2.9792   -0.9399 C   0  0  0  0  0  0
   -1.9361    4.1695   -0.9298 O   0  0  0  0  0  0
   -0.4328    1.5724   -0.1173 N   0  0  0  0  0  0
    0.1083    0.3931    0.2249 C   0  0  0  0  0  0
   -0.5292   -0.5118    0.7646 O   0  0  0  0  0  0
    1.6088    0.2191   -0.0641 C   0  0  1  0  0  0
    2.4016    0.1958    1.2614 C   0  0  0  0  0  0
    2.4019    1.5446    2.0092 C   0  0  0  0  0  0
    3.0950    1.3056    3.7171 S   0  0  2  0  0  0
    3.7315   -0.0842    3.7910 O   0  0  0  0  0  0
    1.4754    1.1748    4.5456 C   0  0  0  0  0  0
    0.8034   -0.0624    4.5901 C   0  0  0  0  0  0
   -0.4540   -0.1494    5.2179 C   0  0  0  0  0  0
   -1.0337    0.9960    5.8033 C   0  0  0  0  0  0
   -2.2891    0.9099    6.4405 C   0  0  0  0  0  0
   -2.8627    2.0547    7.0279 C   0  0  0  0  0  0
   -2.1858    3.2888    6.9780 C   0  0  0  0  0  0
   -0.9329    3.3822    6.3410 C   0  0  0  0  0  0
   -0.3517    2.2391    5.7543 C   0  0  0  0  0  0
    0.9052    2.3262    5.1211 C   0  0  0  0  0  0
    1.8863   -1.0602   -0.8925 C   0  0  0  0  0  0
    1.2048   -1.1368   -2.2802 C   0  0  0  0  0  0
    1.4318   -2.5174   -2.9144 C   0  0  0  0  0  0
    1.6803   -0.0262   -3.2320 C   0  0  0  0  0  0
   -2.4385    1.0913   -0.0036 H   0  0  0  0  0  0
    1.9599    1.0779   -0.6374 H   0  0  0  0  0  0
   -3.0579    2.7683    4.1594 H   0  0  0  0  0  0
   -2.6821    4.3493    3.4809 H   0  0  0  0  0  0
   -4.3579    3.8681    3.7125 H   0  0  0  0  0  0
   -3.7340    3.6822    1.3366 H   0  0  0  0  0  0
   -4.0927    0.9067    2.5754 H   0  0  0  0  0  0
   -5.3885    2.0648    2.2907 H   0  0  0  0  0  0
   -4.5276    1.3705    0.9311 H   0  0  0  0  0  0
   -1.2845    3.2931    1.7557 H   0  0  0  0  0  0
   -1.6361    1.6741    2.2725 H   0  0  0  0  0  0
   -2.8524    2.5285   -1.7263 H   0  0  0  0  0  0
    0.1642    2.2571   -0.5584 H   0  0  0  0  0  0
    1.9956   -0.5871    1.9028 H   0  0  0  0  0  0
    3.4357   -0.0901    1.0659 H   0  0  0  0  0  0
    3.0041    2.2794    1.4749 H   0  0  0  0  0  0
    1.3983    1.9606    2.0950 H   0  0  0  0  0  0
    1.2443   -0.9425    4.1457 H   0  0  0  0  0  0
   -0.9685   -1.0988    5.2507 H   0  0  0  0  0  0
   -2.8158   -0.0324    6.4831 H   0  0  0  0  0  0
   -3.8239    1.9862    7.5157 H   0  0  0  0  0  0
   -2.6288    4.1655    7.4270 H   0  0  0  0  0  0
   -0.4215    4.3334    6.3067 H   0  0  0  0  0  0
    1.4307    3.2691    5.0753 H   0  0  0  0  0  0
    2.9635   -1.1627   -1.0314 H   0  0  0  0  0  0
    1.5888   -1.9297   -0.3038 H   0  0  0  0  0  0
    0.1277   -1.0264   -2.1526 H   0  0  0  0  0  0
    2.4925   -2.7083   -3.0811 H   0  0  0  0  0  0
    1.0466   -3.3123   -2.2748 H   0  0  0  0  0  0
    0.9240   -2.5978   -3.8761 H   0  0  0  0  0  0
    2.7619   -0.0570   -3.3682 H   0  0  0  0  0  0
    1.2197   -0.1297   -4.2149 H   0  0  0  0  0  0
    1.4166    0.9635   -2.8600 H   0  0  0  0  0  0
  1  2  1  0  0  0
  1 32  1  0  0  0
  1 33  1  0  0  0
  1 34  1  0  0  0
  2  3  1  0  0  0
  2  4  1  0  0  0
  2 35  1  0  0  0
  3 36  1  0  0  0
  3 37  1  0  0  0
  3 38  1  0  0  0
  4  5  1  0  0  0
  4 39  1  0  0  0
  4 40  1  0  0  0
  5 30  1  0  0  0
  5  6  1  0  0  0
  5  8  1  0  0  0
  6  7  2  0  0  0
  6 41  1  0  0  0
  8  9  1  0  0  0
  8 42  1  0  0  0
  9 10  2  0  0  0
  9 11  1  0  0  0
 11 31  1  0  0  0
 11 12  1  0  0  0
 11 26  1  0  0  0
 12 13  1  0  0  0
 12 43  1  0  0  0
 12 44  1  0  0  0
 13 14  1  0  0  0
 13 45  1  0  0  0
 13 46  1  0  0  0
 14 15  2  0  0  0
 14 16  1  0  0  0
 16 25  2  0  0  0
 16 17  1  0  0  0
 17 18  2  0  0  0
 17 47  1  0  0  0
 18 19  1  0  0  0
 18 48  1  0  0  0
 19 24  2  0  0  0
 19 20  1  0  0  0
 20 21  2  0  0  0
 20 49  1  0  0  0
 21 22  1  0  0  0
 21 50  1  0  0  0
 22 23  2  0  0  0
 22 51  1  0  0  0
 23 24  1  0  0  0
 23 52  1  0  0  0
 24 25  1  0  0  0
 25 53  1  0  0  0
 26 27  1  0  0  0
 26 54  1  0  0  0
 26 55  1  0  0  0
 27 28  1  0  0  0
 27 29  1  0  0  0
 27 56  1  0  0  0
 28 57  1  0  0  0
 28 58  1  0  0  0
 28 59  1  0  0  0
 29 60  1  0  0  0
 29 61  1  0  0  0
 29 62  1  0  0  0
M  END
$$$$
286
                    3D
 Schrodinger Suite 2021-2.
 52 53  0  0  1  0            999 V2000
   -2.6244   -0.6762    3.3568 C   0  0  0  0  0  0
   -2.2679   -0.3923    1.8935 C   0  0  0  0  0  0
   -0.7503   -0.4121    1.6457 C   0  0  0  0  0  0
   -0.3340   -0.0083    0.2135 C   0  0  2  0  0  0
   -0.9021   -0.9503   -0.8677 C   0  0  0  0  0  0
    1.1217    0.1956    0.0946 N   0  0  0  0  0  0
    1.9206   -0.9466    0.2848 C   0  0  0  0  0  0
    2.1121   -1.8418   -0.7919 C   0  0  0  0  0  0
    2.9070   -2.9918   -0.6419 C   0  0  0  0  0  0
    3.1184   -4.0734   -1.9693 Cl  0  0  0  0  0  0
    3.5279   -3.2570    0.5906 C   0  0  0  0  0  0
    3.3672   -2.3601    1.6622 C   0  0  0  0  0  0
    2.5832   -1.1931    1.5184 C   0  0  0  0  0  0
    2.4748   -0.2344    2.7003 C   0  0  0  0  0  0
    3.7062   -0.0145    3.3565 O   0  0  0  0  0  0
    1.7295    1.7056   -0.5366 S   0  0  0  0  0  0
    0.8321    2.7689   -0.0572 O   0  0  0  0  0  0
    3.1647    1.7328   -0.2132 O   0  0  0  0  0  0
    1.5346    1.4986   -2.3015 C   0  0  0  0  0  0
    0.3561    1.9462   -2.9304 C   0  0  0  0  0  0
    0.1927    1.7565   -4.3161 C   0  0  0  0  0  0
    1.2025    1.1207   -5.0697 C   0  0  0  0  0  0
    1.0188    0.9090   -6.5602 C   0  0  0  0  0  0
    0.2819   -0.3981   -6.8726 C   0  0  0  0  0  0
    2.3794    0.6747   -4.4308 C   0  0  0  0  0  0
    2.5483    0.8637   -3.0457 C   0  0  0  0  0  0
   -3.7041   -0.6519    3.5051 H   0  0  0  0  0  0
   -2.2680   -1.6595    3.6649 H   0  0  0  0  0  0
   -2.1809    0.0653    4.0217 H   0  0  0  0  0  0
   -2.7619   -1.1319    1.2638 H   0  0  0  0  0  0
   -2.6734    0.5795    1.6096 H   0  0  0  0  0  0
   -0.2906    0.2833    2.3480 H   0  0  0  0  0  0
   -0.3585   -1.4008    1.8874 H   0  0  0  0  0  0
   -0.8037    0.9558    0.0249 H   0  0  0  0  0  0
   -1.9904   -0.9074   -0.8986 H   0  0  0  0  0  0
   -0.5493   -0.6723   -1.8609 H   0  0  0  0  0  0
   -0.6253   -1.9890   -0.6878 H   0  0  0  0  0  0
    1.6467   -1.6478   -1.7468 H   0  0  0  0  0  0
    4.1362   -4.1410    0.7135 H   0  0  0  0  0  0
    3.8608   -2.5693    2.5999 H   0  0  0  0  0  0
    2.0962    0.7400    2.3945 H   0  0  0  0  0  0
    1.7649   -0.6426    3.4198 H   0  0  0  0  0  0
    3.5638    0.5940    4.0654 H   0  0  0  0  0  0
   -0.4240    2.4242   -2.3569 H   0  0  0  0  0  0
   -0.7122    2.0953   -4.7988 H   0  0  0  0  0  0
    0.4683    1.7535   -6.9769 H   0  0  0  0  0  0
    1.9945    0.9088   -7.0475 H   0  0  0  0  0  0
    0.1655   -0.5308   -7.9483 H   0  0  0  0  0  0
    0.8285   -1.2596   -6.4878 H   0  0  0  0  0  0
   -0.7131   -0.4058   -6.4266 H   0  0  0  0  0  0
    3.1536    0.1822   -5.0007 H   0  0  0  0  0  0
    3.4465    0.5124   -2.5596 H   0  0  0  0  0  0
  1  2  1  0  0  0
  1 27  1  0  0  0
  1 28  1  0  0  0
  1 29  1  0  0  0
  2  3  1  0  0  0
  2 30  1  0  0  0
  2 31  1  0  0  0
  3  4  1  0  0  0
  3 32  1  0  0  0
  3 33  1  0  0  0
  4  5  1  0  0  0
  4  6  1  0  0  0
  4 34  1  0  0  0
  5 35  1  0  0  0
  5 36  1  0  0  0
  5 37  1  0  0  0
  6  7  1  0  0  0
  6 16  1  0  0  0
  7 13  1  0  0  0
  7  8  2  0  0  0
  8  9  1  0  0  0
  8 38  1  0  0  0
  9 10  1  0  0  0
  9 11  2  0  0  0
 11 12  1  0  0  0
 11 39  1  0  0  0
 12 13  2  0  0  0
 12 40  1  0  0  0
 13 14  1  0  0  0
 14 15  1  0  0  0
 14 41  1  0  0  0
 14 42  1  0  0  0
 15 43  1  0  0  0
 16 17  2  0  0  0
 16 18  2  0  0  0
 16 19  1  0  0  0
 19 26  1  0  0  0
 19 20  2  0  0  0
 20 21  1  0  0  0
 20 44  1  0  0  0
 21 22  2  0  0  0
 21 45  1  0  0  0
 22 23  1  0  0  0
 22 25  1  0  0  0
 23 24  1  0  0  0
 23 46  1  0  0  0
 23 47  1  0  0  0
 24 48  1  0  0  0
 24 49  1  0  0  0
 24 50  1  0  0  0
 25 26  2  0  0  0
 25 51  1  0  0  0
 26 52  1  0  0  0
M  END
$$$$
287
                    3D
 Schrodinger Suite 2021-2.
 58 60  0  0  1  0            999 V2000
   -3.2590   -3.3985    1.5162 O   0  0  0  0  0  0
   -3.4293   -2.1810    1.5951 C   0  0  0  0  0  0
   -4.8607   -1.6319    1.4367 C   0  0  0  0  0  0
   -5.7707   -2.4347    0.4782 C   0  0  0  0  0  0
   -5.4058   -2.2706   -0.9286 N   0  0  2  0  0  0
   -6.4474   -2.7993   -1.7967 C   0  0  0  0  0  0
   -5.6518   -3.1975   -3.0136 C   0  0  0  0  0  0
   -4.4574   -3.8543   -2.3546 C   0  0  0  0  0  0
   -4.2307   -3.1007   -1.1702 O   0  0  0  0  0  0
   -2.3955   -1.3240    1.7821 N   0  0  0  0  0  0
   -2.5042    0.1101    2.0731 C   0  0  0  0  0  0
   -1.9980    0.9010    0.8558 C   0  0  0  0  0  0
   -0.5547    0.4857    0.4989 C   0  0  0  0  0  0
   -0.3679   -1.0563    0.3673 C   0  0  1  0  0  0
   -1.0989   -1.5783   -0.9062 C   0  0  0  0  0  0
   -0.5785   -1.0320   -2.1019 O   0  0  0  0  0  0
    1.1386   -1.4347    0.2390 C   0  0  0  0  0  0
    2.0471   -1.1611    1.4558 C   0  0  0  0  0  0
    3.5169   -1.5016    1.1693 C   0  0  0  0  0  0
    4.4109   -1.2252    2.3630 C   0  0  0  0  0  0
    4.6632   -2.2401    3.3098 C   0  0  0  0  0  0
    5.4885   -1.9810    4.4216 C   0  0  0  0  0  0
    6.0634   -0.7064    4.5908 C   0  0  0  0  0  0
    5.8131    0.3092    3.6479 C   0  0  0  0  0  0
    4.9882    0.0506    2.5357 C   0  0  0  0  0  0
   -0.9910   -1.7311    1.6263 C   0  0  0  0  0  0
   -5.3142   -1.6040    2.4277 H   0  0  0  0  0  0
   -4.8478   -0.6070    1.0685 H   0  0  0  0  0  0
   -5.7893   -3.4932    0.7429 H   0  0  0  0  0  0
   -6.7904   -2.0690    0.6065 H   0  0  0  0  0  0
   -6.9203   -3.6776   -1.3533 H   0  0  0  0  0  0
   -7.2171   -2.0570   -2.0095 H   0  0  0  0  0  0
   -6.1935   -3.8701   -3.6792 H   0  0  0  0  0  0
   -5.3467   -2.3170   -3.5810 H   0  0  0  0  0  0
   -4.6888   -4.8832   -2.0753 H   0  0  0  0  0  0
   -3.5766   -3.8645   -2.9969 H   0  0  0  0  0  0
   -3.5065    0.4264    2.3570 H   0  0  0  0  0  0
   -1.8856    0.3425    2.9415 H   0  0  0  0  0  0
   -2.6605    0.7379    0.0053 H   0  0  0  0  0  0
   -2.0320    1.9701    1.0670 H   0  0  0  0  0  0
   -0.2349    0.9964   -0.4096 H   0  0  0  0  0  0
    0.0886    0.8678    1.2898 H   0  0  0  0  0  0
   -1.0252   -2.6647   -0.9674 H   0  0  0  0  0  0
   -2.1629   -1.3476   -0.8868 H   0  0  0  0  0  0
   -1.0619   -1.3908   -2.8304 H   0  0  0  0  0  0
    1.2148   -2.4960   -0.0020 H   0  0  0  0  0  0
    1.5633   -0.9099   -0.6176 H   0  0  0  0  0  0
    1.9856   -0.1149    1.7519 H   0  0  0  0  0  0
    1.7186   -1.7500    2.3117 H   0  0  0  0  0  0
    3.6101   -2.5517    0.8886 H   0  0  0  0  0  0
    3.8764   -0.9237    0.3168 H   0  0  0  0  0  0
    4.2230   -3.2190    3.1866 H   0  0  0  0  0  0
    5.6797   -2.7599    5.1450 H   0  0  0  0  0  0
    6.6955   -0.5077    5.4436 H   0  0  0  0  0  0
    6.2530    1.2869    3.7783 H   0  0  0  0  0  0
    4.7979    0.8346    1.8172 H   0  0  0  0  0  0
   -0.4637   -1.4328    2.5320 H   0  0  0  0  0  0
   -0.8706   -2.8137    1.5649 H   0  0  0  0  0  0
  1  2  2  0  0  0
  2  3  1  0  0  0
  2 10  1  0  0  0
  3  4  1  0  0  0
  3 27  1  0  0  0
  3 28  1  0  0  0
  4  5  1  0  0  0
  4 29  1  0  0  0
  4 30  1  0  0  0
  5  9  1  0  0  0
  5  6  1  0  0  0
  6  7  1  0  0  0
  6 31  1  0  0  0
  6 32  1  0  0  0
  7  8  1  0  0  0
  7 33  1  0  0  0
  7 34  1  0  0  0
  8  9  1  0  0  0
  8 35  1  0  0  0
  8 36  1  0  0  0
 10 26  1  0  0  0
 10 11  1  0  0  0
 11 12  1  0  0  0
 11 37  1  0  0  0
 11 38  1  0  0  0
 12 13  1  0  0  0
 12 39  1  0  0  0
 12 40  1  0  0  0
 13 14  1  0  0  0
 13 41  1  0  0  0
 13 42  1  0  0  0
 14 15  1  0  0  0
 14 17  1  0  0  0
 14 26  1  0  0  0
 15 16  1  0  0  0
 15 43  1  0  0  0
 15 44  1  0  0  0
 16 45  1  0  0  0
 17 18  1  0  0  0
 17 46  1  0  0  0
 17 47  1  0  0  0
 18 19  1  0  0  0
 18 48  1  0  0  0
 18 49  1  0  0  0
 19 20  1  0  0  0
 19 50  1  0  0  0
 19 51  1  0  0  0
 20 25  1  0  0  0
 20 21  2  0  0  0
 21 22  1  0  0  0
 21 52  1  0  0  0
 22 23  2  0  0  0
 22 53  1  0  0  0
 23 24  1  0  0  0
 23 54  1  0  0  0
 24 25  2  0  0  0
 24 55  1  0  0  0
 25 56  1  0  0  0
 26 57  1  0  0  0
 26 58  1  0  0  0
M  END
$$$$
288
                    3D
 Schrodinger Suite 2021-2.
 54 55  0  0  1  0            999 V2000
    0.5391   -3.0965    1.6501 C   0  0  0  0  0  0
    0.3830   -2.4744    0.2578 C   0  0  0  0  0  0
   -0.3649   -1.1501    0.3017 C   0  0  0  0  0  0
   -1.7141   -1.2442    0.2714 N   0  0  0  0  0  0
   -2.4114   -0.0857    0.3204 C   0  0  0  0  0  0
   -3.7814   -0.1842    0.2688 O   0  0  0  0  0  0
   -4.4385   -0.9134    1.2325 C   0  0  0  0  0  0
   -5.5148   -1.7455    0.8629 C   0  0  0  0  0  0
   -6.1780   -2.4769    1.8689 C   0  0  0  0  0  0
   -7.3347   -3.3910    1.5236 C   0  0  0  0  0  0
   -5.7387   -2.3447    3.2019 C   0  0  0  0  0  0
   -4.6570   -1.4822    3.4699 C   0  0  0  0  0  0
   -4.0175   -0.7756    2.5138 N   0  0  0  0  0  0
   -1.7617    1.1654    0.4044 C   0  0  0  0  0  0
   -2.5287    2.4744    0.4365 C   0  0  0  0  0  0
   -2.5732    3.1506   -0.9389 C   0  0  0  0  0  0
   -0.4147    1.2572    0.4454 N   0  0  0  0  0  0
    0.2947    0.1043    0.3887 C   0  0  0  0  0  0
    1.6969    0.1730    0.4323 N   0  0  0  0  0  0
    2.4157    1.4096    0.1327 C   0  0  0  0  0  0
    2.5005    1.6441   -1.3902 C   0  0  0  0  0  0
    1.2417    2.0621   -1.8931 O   0  0  0  0  0  0
    1.2525    2.2738   -3.2930 C   0  0  0  0  0  0
    3.8175    1.3400    0.7605 C   0  0  0  0  0  0
    4.4492    2.6063    0.6636 O   0  0  0  0  0  0
    5.7575    2.6039    1.2069 C   0  0  0  0  0  0
    1.0697   -4.0470    1.5938 H   0  0  0  0  0  0
    1.1021   -2.4388    2.3129 H   0  0  0  0  0  0
   -0.4323   -3.2835    2.1092 H   0  0  0  0  0  0
    1.3601   -2.3461   -0.2077 H   0  0  0  0  0  0
   -0.1613   -3.1654   -0.3877 H   0  0  0  0  0  0
   -5.8188   -1.8209   -0.1709 H   0  0  0  0  0  0
   -8.0402   -3.4541    2.3526 H   0  0  0  0  0  0
   -7.8724   -3.0229    0.6494 H   0  0  0  0  0  0
   -6.9687   -4.3943    1.3053 H   0  0  0  0  0  0
   -6.2175   -2.8888    4.0027 H   0  0  0  0  0  0
   -4.2968   -1.3551    4.4801 H   0  0  0  0  0  0
   -3.5426    2.3021    0.7990 H   0  0  0  0  0  0
   -2.0587    3.1421    1.1597 H   0  0  0  0  0  0
   -3.1270    4.0883   -0.8931 H   0  0  0  0  0  0
   -1.5690    3.3739   -1.3012 H   0  0  0  0  0  0
   -3.0601    2.5105   -1.6752 H   0  0  0  0  0  0
    2.2139   -0.6911    0.3610 H   0  0  0  0  0  0
    1.9016    2.2515    0.5976 H   0  0  0  0  0  0
    3.2292    2.4263   -1.6074 H   0  0  0  0  0  0
    2.8402    0.7400   -1.8987 H   0  0  0  0  0  0
    0.2618    2.5876   -3.6219 H   0  0  0  0  0  0
    1.9625    3.0545   -3.5690 H   0  0  0  0  0  0
    1.5109    1.3589   -3.8277 H   0  0  0  0  0  0
    3.7403    1.0630    1.8135 H   0  0  0  0  0  0
    4.4184    0.5749    0.2655 H   0  0  0  0  0  0
    6.1958    3.5973    1.1117 H   0  0  0  0  0  0
    5.7454    2.3412    2.2655 H   0  0  0  0  0  0
    6.4018    1.9001    0.6783 H   0  0  0  0  0  0
  1  2  1  0  0  0
  1 27  1  0  0  0
  1 28  1  0  0  0
  1 29  1  0  0  0
  2  3  1  0  0  0
  2 30  1  0  0  0
  2 31  1  0  0  0
  3 18  1  0  0  0
  3  4  2  0  0  0
  4  5  1  0  0  0
  5  6  1  0  0  0
  5 14  2  0  0  0
  6  7  1  0  0  0
  7 13  1  0  0  0
  7  8  2  0  0  0
  8  9  1  0  0  0
  8 32  1  0  0  0
  9 10  1  0  0  0
  9 11  2  0  0  0
 10 33  1  0  0  0
 10 34  1  0  0  0
 10 35  1  0  0  0
 11 12  1  0  0  0
 11 36  1  0  0  0
 12 13  2  0  0  0
 12 37  1  0  0  0
 14 15  1  0  0  0
 14 17  1  0  0  0
 15 16  1  0  0  0
 15 38  1  0  0  0
 15 39  1  0  0  0
 16 40  1  0  0  0
 16 41  1  0  0  0
 16 42  1  0  0  0
 17 18  2  0  0  0
 18 19  1  0  0  0
 19 20  1  0  0  0
 19 43  1  0  0  0
 20 21  1  0  0  0
 20 24  1  0  0  0
 20 44  1  0  0  0
 21 22  1  0  0  0
 21 45  1  0  0  0
 21 46  1  0  0  0
 22 23  1  0  0  0
 23 47  1  0  0  0
 23 48  1  0  0  0
 23 49  1  0  0  0
 24 25  1  0  0  0
 24 50  1  0  0  0
 24 51  1  0  0  0
 25 26  1  0  0  0
 26 52  1  0  0  0
 26 53  1  0  0  0
 26 54  1  0  0  0
M  END
$$$$
289
                    3D
 Schrodinger Suite 2021-2.
 51 52  0  0  1  0            999 V2000
   -1.4146   -5.8936    2.1278 C   0  0  0  0  0  0
   -2.2216   -5.0067    1.1767 C   0  0  0  0  0  0
   -1.8619   -3.6529    1.3936 O   0  0  0  0  0  0
   -2.5533   -2.7586    0.5374 C   0  0  0  0  0  0
   -2.0942   -1.3288    0.8356 C   0  0  0  0  0  0
   -0.7843   -1.1411    0.3237 O   0  0  0  0  0  0
   -0.1737    0.0520    0.4502 C   0  0  0  0  0  0
   -0.7003    1.0275    0.9916 O   0  0  0  0  0  0
    1.1947    0.0139   -0.1395 C   0  0  0  0  0  0
    1.7154   -1.1938   -0.7019 C   0  0  0  0  0  0
    2.1189   -2.1800   -1.1553 N   0  0  0  0  0  0
    2.0043    1.1083   -0.1715 C   0  0  0  0  0  0
    3.4035    1.0253   -0.7806 C   0  0  0  0  0  0
    1.6430    2.3580    0.3287 N   0  0  0  0  0  0
    2.3955    3.6011    0.3727 C   0  0  0  0  0  0
    1.6342    4.7397    1.0248 C   0  0  0  0  0  0
    1.0081    4.5582    2.2754 C   0  0  0  0  0  0
    0.3006    5.6163    2.8780 C   0  0  0  0  0  0
    0.2111    6.8771    2.2363 C   0  0  0  0  0  0
   -0.4631    7.9633    2.7513 O   0  0  0  0  0  0
   -1.1162    7.8167    4.0058 C   0  0  0  0  0  0
   -1.7847    9.1158    4.3246 C   0  0  0  0  0  0
   -2.0843    9.6002    5.5778 C   0  0  0  0  0  0
   -2.7301   10.8405    5.5759 N   0  0  0  0  0  0
   -2.9220   11.2745    4.3319 C   0  0  0  0  0  0
   -3.6852   12.7550    3.9131 Cl  0  0  0  0  0  0
   -2.3333   10.2095    3.0715 S   0  0  0  0  0  0
    0.8463    7.0505    0.9896 C   0  0  0  0  0  0
    1.5545    5.9933    0.3866 C   0  0  0  0  0  0
   -1.6667   -6.9449    1.9881 H   0  0  0  0  0  0
   -0.3443   -5.7802    1.9541 H   0  0  0  0  0  0
   -1.6155   -5.6368    3.1680 H   0  0  0  0  0  0
   -2.0176   -5.2895    0.1429 H   0  0  0  0  0  0
   -3.2889   -5.1455    1.3537 H   0  0  0  0  0  0
   -2.3815   -3.0056   -0.5116 H   0  0  0  0  0  0
   -3.6253   -2.8408    0.7226 H   0  0  0  0  0  0
   -2.7686   -0.6200    0.3533 H   0  0  0  0  0  0
   -2.1217   -1.1321    1.9083 H   0  0  0  0  0  0
    3.3378    0.7223   -1.8262 H   0  0  0  0  0  0
    3.9657    1.9566   -0.7536 H   0  0  0  0  0  0
    3.9965    0.2792   -0.2507 H   0  0  0  0  0  0
    0.7172    2.4242    0.7296 H   0  0  0  0  0  0
    3.3196    3.4419    0.9294 H   0  0  0  0  0  0
    2.6718    3.8846   -0.6434 H   0  0  0  0  0  0
    1.0671    3.6039    2.7785 H   0  0  0  0  0  0
   -0.1656    5.4340    3.8343 H   0  0  0  0  0  0
   -1.8639    7.0237    3.9605 H   0  0  0  0  0  0
   -0.3945    7.5679    4.7854 H   0  0  0  0  0  0
   -1.8730    9.1268    6.5253 H   0  0  0  0  0  0
    0.7888    8.0058    0.4887 H   0  0  0  0  0  0
    2.0324    6.1490   -0.5696 H   0  0  0  0  0  0
  1  2  1  0  0  0
  1 30  1  0  0  0
  1 31  1  0  0  0
  1 32  1  0  0  0
  2  3  1  0  0  0
  2 33  1  0  0  0
  2 34  1  0  0  0
  3  4  1  0  0  0
  4  5  1  0  0  0
  4 35  1  0  0  0
  4 36  1  0  0  0
  5  6  1  0  0  0
  5 37  1  0  0  0
  5 38  1  0  0  0
  6  7  1  0  0  0
  7  8  2  0  0  0
  7  9  1  0  0  0
  9 10  1  0  0  0
  9 12  2  0  0  0
 10 11  3  0  0  0
 12 13  1  0  0  0
 12 14  1  0  0  0
 13 39  1  0  0  0
 13 40  1  0  0  0
 13 41  1  0  0  0
 14 15  1  0  0  0
 14 42  1  0  0  0
 15 16  1  0  0  0
 15 43  1  0  0  0
 15 44  1  0  0  0
 16 29  1  0  0  0
 16 17  2  0  0  0
 17 18  1  0  0  0
 17 45  1  0  0  0
 18 19  2  0  0  0
 18 46  1  0  0  0
 19 20  1  0  0  0
 19 28  1  0  0  0
 20 21  1  0  0  0
 21 22  1  0  0  0
 21 47  1  0  0  0
 21 48  1  0  0  0
 22 27  1  0  0  0
 22 23  2  0  0  0
 23 24  1  0  0  0
 23 49  1  0  0  0
 24 25  2  0  0  0
 25 26  1  0  0  0
 25 27  1  0  0  0
 28 29  2  0  0  0
 28 50  1  0  0  0
 29 51  1  0  0  0
M  END
$$$$
290
                    3D
 Schrodinger Suite 2021-2.
 52 54  0  0  1  0            999 V2000
   -4.4427    2.7649   -0.4696 C   0  0  0  0  0  0
   -2.9147    2.8193   -0.3634 C   0  0  0  0  0  0
   -2.2786    1.4235   -0.3003 C   0  0  0  0  0  0
   -0.7463    1.4763   -0.2150 C   0  0  0  0  0  0
   -0.1168    0.0802   -0.1163 C   0  0  0  0  0  0
    1.4161    0.1294   -0.0013 C   0  0  0  0  0  0
    2.0935   -1.2547    0.1023 C   0  0  0  0  0  0
    1.6335   -2.0318    1.2681 N   0  0  0  0  0  0
    1.9875   -1.7312    2.5262 C   0  0  0  0  0  0
    2.7239   -0.8058    2.8724 O   0  0  0  0  0  0
    1.2706   -2.6779    3.4944 C   0  0  0  0  0  0
    2.2214   -3.6006    4.2895 C   0  0  0  0  0  0
    1.8043   -4.9161    4.6104 C   0  0  0  0  0  0
    2.6347   -5.7832    5.3460 C   0  0  0  0  0  0
    3.8973   -5.3465    5.7838 C   0  0  0  0  0  0
    4.3236   -4.0397    5.4888 C   0  0  0  0  0  0
    3.4927   -3.1738    4.7520 C   0  0  0  0  0  0
    0.3415   -1.8550    4.4070 C   0  0  0  0  0  0
   -1.0499   -1.7530    4.1528 C   0  0  0  0  0  0
   -1.8811   -0.9830    4.9888 C   0  0  0  0  0  0
   -1.3369   -0.3014    6.0919 C   0  0  0  0  0  0
    0.0415   -0.3893    6.3561 C   0  0  0  0  0  0
    0.8727   -1.1581    5.5192 C   0  0  0  0  0  0
    0.5461   -3.4448    2.4893 N   0  0  0  0  0  0
    0.7658   -3.0778    1.2094 C   0  0  0  0  0  0
    0.0472   -3.8103   -0.1048 S   0  0  0  0  0  0
   -4.8661    3.7690   -0.4963 H   0  0  0  0  0  0
   -4.7558    2.2474   -1.3766 H   0  0  0  0  0  0
   -4.8786    2.2428    0.3825 H   0  0  0  0  0  0
   -2.5150    3.3671   -1.2175 H   0  0  0  0  0  0
   -2.6370    3.3876    0.5250 H   0  0  0  0  0  0
   -2.6719    0.8875    0.5644 H   0  0  0  0  0  0
   -2.5727    0.8490   -1.1797 H   0  0  0  0  0  0
   -0.3497    1.9942   -1.0891 H   0  0  0  0  0  0
   -0.4529    2.0666    0.6542 H   0  0  0  0  0  0
   -0.5358   -0.4303    0.7511 H   0  0  0  0  0  0
   -0.3970   -0.5101   -0.9895 H   0  0  0  0  0  0
    1.8218    0.6502   -0.8690 H   0  0  0  0  0  0
    1.6908    0.7357    0.8623 H   0  0  0  0  0  0
    1.9581   -1.7953   -0.8340 H   0  0  0  0  0  0
    3.1727   -1.1147    0.1839 H   0  0  0  0  0  0
    0.8343   -5.2755    4.3001 H   0  0  0  0  0  0
    2.2996   -6.7834    5.5779 H   0  0  0  0  0  0
    4.5342   -6.0096    6.3505 H   0  0  0  0  0  0
    5.2886   -3.6972    5.8324 H   0  0  0  0  0  0
    3.8533   -2.1756    4.5630 H   0  0  0  0  0  0
   -1.5051   -2.2538    3.3118 H   0  0  0  0  0  0
   -2.9387   -0.9130    4.7805 H   0  0  0  0  0  0
   -1.9749    0.2905    6.7314 H   0  0  0  0  0  0
    0.4641    0.1366    7.1994 H   0  0  0  0  0  0
    1.9286   -1.1986    5.7377 H   0  0  0  0  0  0
   -0.0729   -4.2051    2.7297 H   0  0  0  0  0  0
  1  2  1  0  0  0
  1 27  1  0  0  0
  1 28  1  0  0  0
  1 29  1  0  0  0
  2  3  1  0  0  0
  2 30  1  0  0  0
  2 31  1  0  0  0
  3  4  1  0  0  0
  3 32  1  0  0  0
  3 33  1  0  0  0
  4  5  1  0  0  0
  4 34  1  0  0  0
  4 35  1  0  0  0
  5  6  1  0  0  0
  5 36  1  0  0  0
  5 37  1  0  0  0
  6  7  1  0  0  0
  6 38  1  0  0  0
  6 39  1  0  0  0
  7  8  1  0  0  0
  7 40  1  0  0  0
  7 41  1  0  0  0
  8 25  1  0  0  0
  8  9  1  0  0  0
  9 10  2  0  0  0
  9 11  1  0  0  0
 11 12  1  0  0  0
 11 18  1  0  0  0
 11 24  1  0  0  0
 12 17  1  0  0  0
 12 13  2  0  0  0
 13 14  1  0  0  0
 13 42  1  0  0  0
 14 15  2  0  0  0
 14 43  1  0  0  0
 15 16  1  0  0  0
 15 44  1  0  0  0
 16 17  2  0  0  0
 16 45  1  0  0  0
 17 46  1  0  0  0
 18 23  1  0  0  0
 18 19  2  0  0  0
 19 20  1  0  0  0
 19 47  1  0  0  0
 20 21  2  0  0  0
 20 48  1  0  0  0
 21 22  1  0  0  0
 21 49  1  0  0  0
 22 23  2  0  0  0
 22 50  1  0  0  0
 23 51  1  0  0  0
 24 25  1  0  0  0
 24 52  1  0  0  0
 25 26  2  0  0  0
M  END
$$$$
291
                    3D
 Schrodinger Suite 2021-2.
 53 54  0  0  1  0            999 V2000
   -2.2371    4.2932   -2.8823 C   0  0  0  0  0  0
   -2.1193    3.4795   -1.8227 C   0  0  0  0  0  0
   -0.9300    3.4612   -0.8831 C   0  0  0  0  0  0
   -0.3469    2.1297   -0.7862 N   0  0  0  0  0  0
   -0.8245    1.1209   -0.0383 C   0  0  0  0  0  0
   -1.8519    1.2423    0.6318 O   0  0  0  0  0  0
   -0.0341   -0.2229   -0.0411 C   0  0  1  0  0  0
   -0.5812   -1.1273    1.1094 C   0  0  0  0  0  0
   -0.3353   -0.9877   -1.4014 C   0  0  0  0  0  0
   -1.8309   -1.2127   -1.7370 C   0  0  0  0  0  0
    0.4040   -2.3379   -1.5382 C   0  0  0  0  0  0
    1.4430    0.0389    0.1989 N   0  0  0  0  0  0
    1.8679    0.3201    1.6030 C   0  0  0  0  0  0
    1.4992    1.7092    2.1044 C   0  0  0  0  0  0
    2.0420    2.8653    1.5034 C   0  0  0  0  0  0
    1.6456    4.1269    1.9892 C   0  0  0  0  0  0
    0.7749    4.2887    3.0081 N   0  0  0  0  0  0
    0.2681    3.1792    3.5872 C   0  0  0  0  0  0
    0.5993    1.8721    3.1783 C   0  0  0  0  0  0
    2.3474    0.2980   -0.7946 C   0  0  0  0  0  0
    2.0511    0.7535   -1.8982 O   0  0  0  0  0  0
    3.7918   -0.0389   -0.5506 C   0  0  0  0  0  0
    4.8113    0.8730   -0.8978 C   0  0  0  0  0  0
    6.1539    0.5083   -0.6805 C   0  0  0  0  0  0
    6.4245   -0.7626   -0.1359 C   0  0  0  0  0  0
    5.4606   -1.6525    0.1833 N   0  0  0  0  0  0
    4.1757   -1.2958   -0.0288 C   0  0  0  0  0  0
   -3.1139    4.2596   -3.5119 H   0  0  0  0  0  0
   -1.4622    5.0020   -3.1353 H   0  0  0  0  0  0
   -2.9183    2.7867   -1.6005 H   0  0  0  0  0  0
   -0.1630    4.1519   -1.2351 H   0  0  0  0  0  0
   -1.2405    3.8113    0.1026 H   0  0  0  0  0  0
    0.4939    1.9622   -1.3209 H   0  0  0  0  0  0
   -1.5920   -1.4849    0.9254 H   0  0  0  0  0  0
    0.0446   -2.0068    1.2626 H   0  0  0  0  0  0
   -0.6430   -0.6051    2.0639 H   0  0  0  0  0  0
   -0.0029   -0.3690   -2.2310 H   0  0  0  0  0  0
   -2.3101   -1.9244   -1.0666 H   0  0  0  0  0  0
   -2.4112   -0.2906   -1.7208 H   0  0  0  0  0  0
   -1.9339   -1.6206   -2.7431 H   0  0  0  0  0  0
    0.0342   -3.0738   -0.8244 H   0  0  0  0  0  0
    0.2576   -2.7576   -2.5338 H   0  0  0  0  0  0
    1.4786   -2.2492   -1.3909 H   0  0  0  0  0  0
    1.5098   -0.4360    2.2977 H   0  0  0  0  0  0
    2.9440    0.2565    1.7501 H   0  0  0  0  0  0
    2.7394    2.7933    0.6822 H   0  0  0  0  0  0
    2.0371    5.0301    1.5451 H   0  0  0  0  0  0
   -0.4242    3.3375    4.4011 H   0  0  0  0  0  0
    0.1601    1.0188    3.6733 H   0  0  0  0  0  0
    4.5725    1.8398   -1.3171 H   0  0  0  0  0  0
    6.9578    1.1860   -0.9274 H   0  0  0  0  0  0
    7.4427   -1.0746    0.0438 H   0  0  0  0  0  0
    3.4335   -2.0364    0.2318 H   0  0  0  0  0  0
  1  2  2  0  0  0
  1 28  1  0  0  0
  1 29  1  0  0  0
  2  3  1  0  0  0
  2 30  1  0  0  0
  3  4  1  0  0  0
  3 31  1  0  0  0
  3 32  1  0  0  0
  4  5  1  0  0  0
  4 33  1  0  0  0
  5  6  2  0  0  0
  5  7  1  0  0  0
  7  8  1  0  0  0
  7  9  1  0  0  0
  7 12  1  0  0  0
  8 34  1  0  0  0
  8 35  1  0  0  0
  8 36  1  0  0  0
  9 10  1  0  0  0
  9 11  1  0  0  0
  9 37  1  0  0  0
 10 38  1  0  0  0
 10 39  1  0  0  0
 10 40  1  0  0  0
 11 41  1  0  0  0
 11 42  1  0  0  0
 11 43  1  0  0  0
 12 13  1  0  0  0
 12 20  1  0  0  0
 13 14  1  0  0  0
 13 44  1  0  0  0
 13 45  1  0  0  0
 14 19  1  0  0  0
 14 15  2  0  0  0
 15 16  1  0  0  0
 15 46  1  0  0  0
 16 17  2  0  0  0
 16 47  1  0  0  0
 17 18  1  0  0  0
 18 19  2  0  0  0
 18 48  1  0  0  0
 19 49  1  0  0  0
 20 21  2  0  0  0
 20 22  1  0  0  0
 22 27  1  0  0  0
 22 23  2  0  0  0
 23 24  1  0  0  0
 23 50  1  0  0  0
 24 25  2  0  0  0
 24 51  1  0  0  0
 25 26  1  0  0  0
 25 52  1  0  0  0
 26 27  2  0  0  0
 27 53  1  0  0  0
M  END
$$$$
292
                    3D
 Schrodinger Suite 2021-2.
 58 59  0  0  1  0            999 V2000
   -2.0757    7.2383   -0.6916 C   0  0  0  0  0  0
   -1.5222    6.1321   -0.1727 C   0  0  0  0  0  0
   -2.3092    4.9741    0.4052 C   0  0  0  0  0  0
   -1.6504    3.6267    0.1727 C   0  0  0  0  0  0
   -1.0956    2.9099    1.2508 C   0  0  0  0  0  0
   -0.4852    1.6491    1.0406 C   0  0  0  0  0  0
    0.0444    0.8808    2.0570 O   0  0  0  0  0  0
   -0.0451    1.3673    3.3880 C   0  0  0  0  0  0
   -0.4240    1.1290   -0.2746 C   0  0  0  0  0  0
    0.1518   -0.0948   -0.5159 O   0  0  0  0  0  0
    1.5758   -0.1379   -0.4330 C   0  0  2  0  0  0
    2.1587    0.3519   -1.7706 C   0  0  0  0  0  0
    1.9833   -1.5913   -0.1136 C   0  0  1  0  0  0
    3.4030   -1.6539   -0.0032 O   0  0  0  0  0  0
    4.0701   -2.7679   -0.3574 C   0  0  0  0  0  0
    5.5747   -2.6279   -0.1676 C   0  0  0  0  0  0
    3.5716   -3.8096   -0.7837 O   0  0  0  0  0  0
    1.2971   -2.1071    1.1450 C   0  0  0  0  0  0
    0.1254   -2.8810    1.0351 C   0  0  0  0  0  0
   -0.5334   -3.3302    2.1933 C   0  0  0  0  0  0
   -0.0244   -3.0092    3.4665 C   0  0  0  0  0  0
   -0.6818   -3.4519    4.5783 O   0  0  0  0  0  0
    1.1511   -2.2366    3.5974 C   0  0  0  0  0  0
    1.5930   -1.9587    4.8748 O   0  0  0  0  0  0
    2.7953   -1.2176    5.0237 C   0  0  0  0  0  0
    1.8041   -1.7853    2.4226 C   0  0  0  0  0  0
   -0.9946    1.8295   -1.3605 C   0  0  0  0  0  0
   -0.9145    1.2359   -2.6033 O   0  0  0  0  0  0
   -1.4452    1.9361   -3.7185 C   0  0  0  0  0  0
   -1.6040    3.0857   -1.1262 C   0  0  0  0  0  0
    1.9382    0.5098    0.3669 H   0  0  0  0  0  0
    1.6575   -2.2132   -0.9494 H   0  0  0  0  0  0
   -1.4605    8.0366   -1.0800 H   0  0  0  0  0  0
   -3.1481    7.3616   -0.7354 H   0  0  0  0  0  0
   -0.4456    6.0493   -0.1349 H   0  0  0  0  0  0
   -2.4184    5.1427    1.4770 H   0  0  0  0  0  0
   -3.3173    4.9633   -0.0113 H   0  0  0  0  0  0
   -1.1554    3.3441    2.2372 H   0  0  0  0  0  0
    0.3938    0.6389    4.0687 H   0  0  0  0  0  0
    0.5039    2.3020    3.5077 H   0  0  0  0  0  0
   -1.0826    1.5136    3.6913 H   0  0  0  0  0  0
    3.2482    0.3187   -1.7666 H   0  0  0  0  0  0
    1.8088   -0.2630   -2.6000 H   0  0  0  0  0  0
    1.8701    1.3829   -1.9753 H   0  0  0  0  0  0
    5.9022   -1.6207   -0.4269 H   0  0  0  0  0  0
    5.8426   -2.8237    0.8706 H   0  0  0  0  0  0
    6.1064   -3.3373   -0.8022 H   0  0  0  0  0  0
   -0.2748   -3.1255    0.0621 H   0  0  0  0  0  0
   -1.4333   -3.9204    2.1010 H   0  0  0  0  0  0
   -1.4589   -3.9485    4.3737 H   0  0  0  0  0  0
    3.0181   -1.1041    6.0846 H   0  0  0  0  0  0
    3.6399   -1.7316    4.5629 H   0  0  0  0  0  0
    2.7048   -0.2177    4.5976 H   0  0  0  0  0  0
    2.6953   -1.1793    2.4792 H   0  0  0  0  0  0
   -1.2957    1.3418   -4.6197 H   0  0  0  0  0  0
   -2.5174    2.1056   -3.6100 H   0  0  0  0  0  0
   -0.9402    2.8916   -3.8660 H   0  0  0  0  0  0
   -2.0457    3.6546   -1.9303 H   0  0  0  0  0  0
  1  2  2  0  0  0
  1 33  1  0  0  0
  1 34  1  0  0  0
  2  3  1  0  0  0
  2 35  1  0  0  0
  3  4  1  0  0  0
  3 36  1  0  0  0
  3 37  1  0  0  0
  4 30  1  0  0  0
  4  5  2  0  0  0
  5  6  1  0  0  0
  5 38  1  0  0  0
  6  7  1  0  0  0
  6  9  2  0  0  0
  7  8  1  0  0  0
  8 39  1  0  0  0
  8 40  1  0  0  0
  8 41  1  0  0  0
  9 10  1  0  0  0
  9 27  1  0  0  0
 10 11  1  0  0  0
 11 31  1  0  0  0
 11 12  1  0  0  0
 11 13  1  0  0  0
 12 42  1  0  0  0
 12 43  1  0  0  0
 12 44  1  0  0  0
 13 32  1  0  0  0
 13 14  1  0  0  0
 13 18  1  0  0  0
 14 15  1  0  0  0
 15 16  1  0  0  0
 15 17  2  0  0  0
 16 45  1  0  0  0
 16 46  1  0  0  0
 16 47  1  0  0  0
 18 26  1  0  0  0
 18 19  2  0  0  0
 19 20  1  0  0  0
 19 48  1  0  0  0
 20 21  2  0  0  0
 20 49  1  0  0  0
 21 22  1  0  0  0
 21 23  1  0  0  0
 22 50  1  0  0  0
 23 24  1  0  0  0
 23 26  2  0  0  0
 24 25  1  0  0  0
 25 51  1  0  0  0
 25 52  1  0  0  0
 25 53  1  0  0  0
 26 54  1  0  0  0
 27 28  1  0  0  0
 27 30  2  0  0  0
 28 29  1  0  0  0
 29 55  1  0  0  0
 29 56  1  0  0  0
 29 57  1  0  0  0
 30 58  1  0  0  0
M  END
$$$$
293
                    3D
 Schrodinger Suite 2021-2.
 63 66  0  0  1  0            999 V2000
   -3.8832    4.4456   -1.9699 O   0  0  0  0  0  0
   -4.5683    3.9576   -1.0438 C   0  0  0  0  0  0
   -5.6699    4.4101   -0.6611 O   0  5  0  0  0  0
   -4.0256    2.6905   -0.3527 C   0  0  2  0  0  0
   -4.6610    2.4692    1.0378 C   0  0  0  0  0  0
   -4.0586    1.2277    1.7095 C   0  0  0  0  0  0
   -2.5252    1.3145    1.7653 C   0  0  0  0  0  0
   -1.9584    1.5071    0.4059 N   0  3  2  0  0  0
   -0.4771    1.4395    0.3654 C   0  0  0  0  0  0
    0.0414   -0.0014    0.4990 C   0  0  0  0  0  0
    1.5212   -0.0958    0.1772 C   0  0  0  0  0  0
    2.0889   -0.6556   -0.9126 C   0  0  0  0  0  0
    1.4025   -1.3211   -2.1256 C   0  0  0  0  0  0
    0.6756   -2.6438   -1.7667 C   0  0  0  0  0  0
    0.7161   -3.2100   -0.4662 C   0  0  0  0  0  0
    0.0703   -4.4295   -0.1848 C   0  0  0  0  0  0
   -0.6150   -5.1185   -1.2007 C   0  0  0  0  0  0
   -0.6440   -4.5895   -2.5025 C   0  0  0  0  0  0
    0.0023   -3.3706   -2.7816 C   0  0  0  0  0  0
    0.4667   -0.2388   -2.7296 C   0  0  0  0  0  0
    1.0310    0.9776   -3.1906 C   0  0  0  0  0  0
    0.2242    2.0021   -3.7208 C   0  0  0  0  0  0
   -1.1697    1.8348   -3.7903 C   0  0  0  0  0  0
   -1.7527    0.6449   -3.3210 C   0  0  0  0  0  0
   -0.9442   -0.3797   -2.7927 C   0  0  0  0  0  0
    2.4845   -1.7521   -3.1495 C   0  0  0  0  0  0
    3.6444   -2.4375   -2.7073 C   0  0  0  0  0  0
    4.6274   -2.8699   -3.6177 C   0  0  0  0  0  0
    4.4618   -2.6414   -4.9948 C   0  0  0  0  0  0
    3.3047   -1.9915   -5.4582 C   0  0  0  0  0  0
    2.3221   -1.5601   -4.5467 C   0  0  0  0  0  0
   -2.4847    2.7387   -0.2353 C   0  0  0  0  0  0
   -2.2897    0.7402   -0.1618 H   0  0  0  0  0  0
   -4.2954    1.8491   -0.9929 H   0  0  0  0  0  0
   -4.4925    3.3423    1.6705 H   0  0  0  0  0  0
   -5.7417    2.3445    0.9551 H   0  0  0  0  0  0
   -4.4624    1.1181    2.7164 H   0  0  0  0  0  0
   -4.3544    0.3339    1.1585 H   0  0  0  0  0  0
   -2.2175    2.1388    2.4109 H   0  0  0  0  0  0
   -2.1366    0.4002    2.2125 H   0  0  0  0  0  0
   -0.1342    1.8332   -0.5919 H   0  0  0  0  0  0
   -0.0474    2.0847    1.1329 H   0  0  0  0  0  0
   -0.1030   -0.3719    1.5136 H   0  0  0  0  0  0
   -0.5307   -0.6654   -0.1447 H   0  0  0  0  0  0
    2.1749    0.3462    0.9148 H   0  0  0  0  0  0
    3.1668   -0.6069   -0.9454 H   0  0  0  0  0  0
    1.2468   -2.7336    0.3424 H   0  0  0  0  0  0
    0.1077   -4.8409    0.8131 H   0  0  0  0  0  0
   -1.1083   -6.0547   -0.9844 H   0  0  0  0  0  0
   -1.1592   -5.1201   -3.2897 H   0  0  0  0  0  0
   -0.0299   -2.9867   -3.7907 H   0  0  0  0  0  0
    2.0995    1.1291   -3.1411 H   0  0  0  0  0  0
    0.6758    2.9183   -4.0717 H   0  0  0  0  0  0
   -1.7918    2.6214   -4.1919 H   0  0  0  0  0  0
   -2.8250    0.5204   -3.3588 H   0  0  0  0  0  0
   -1.4411   -1.2611   -2.4205 H   0  0  0  0  0  0
    3.7877   -2.6493   -1.6581 H   0  0  0  0  0  0
    5.5063   -3.3844   -3.2582 H   0  0  0  0  0  0
    5.2135   -2.9755   -5.6947 H   0  0  0  0  0  0
    3.1651   -1.8299   -6.5169 H   0  0  0  0  0  0
    1.4377   -1.0890   -4.9477 H   0  0  0  0  0  0
   -2.0413    2.8352   -1.2266 H   0  0  0  0  0  0
   -2.1685    3.6116    0.3391 H   0  0  0  0  0  0
  1  2  2  0  0  0
  2  3  1  0  0  0
  2  4  1  0  0  0
  4 32  1  0  0  0
  4  5  1  0  0  0
  4 34  1  0  0  0
  5  6  1  0  0  0
  5 35  1  0  0  0
  5 36  1  0  0  0
  6  7  1  0  0  0
  6 37  1  0  0  0
  6 38  1  0  0  0
  7  8  1  0  0  0
  7 39  1  0  0  0
  7 40  1  0  0  0
  8 33  1  0  0  0
  8  9  1  0  0  0
  8 32  1  0  0  0
  9 10  1  0  0  0
  9 41  1  0  0  0
  9 42  1  0  0  0
 10 11  1  0  0  0
 10 43  1  0  0  0
 10 44  1  0  0  0
 11 12  2  0  0  0
 11 45  1  0  0  0
 12 13  1  0  0  0
 12 46  1  0  0  0
 13 14  1  0  0  0
 13 20  1  0  0  0
 13 26  1  0  0  0
 14 19  1  0  0  0
 14 15  2  0  0  0
 15 16  1  0  0  0
 15 47  1  0  0  0
 16 17  2  0  0  0
 16 48  1  0  0  0
 17 18  1  0  0  0
 17 49  1  0  0  0
 18 19  2  0  0  0
 18 50  1  0  0  0
 19 51  1  0  0  0
 20 25  1  0  0  0
 20 21  2  0  0  0
 21 22  1  0  0  0
 21 52  1  0  0  0
 22 23  2  0  0  0
 22 53  1  0  0  0
 23 24  1  0  0  0
 23 54  1  0  0  0
 24 25  2  0  0  0
 24 55  1  0  0  0
 25 56  1  0  0  0
 26 31  1  0  0  0
 26 27  2  0  0  0
 27 28  1  0  0  0
 27 57  1  0  0  0
 28 29  2  0  0  0
 28 58  1  0  0  0
 29 30  1  0  0  0
 29 59  1  0  0  0
 30 31  2  0  0  0
 30 60  1  0  0  0
 31 61  1  0  0  0
 32 62  1  0  0  0
 32 63  1  0  0  0
M  CHG  2   3  -1   8   1
M  END
$$$$
294
                    3D
 Schrodinger Suite 2021-2.
 57 58  0  0  1  0            999 V2000
   -6.5278    4.1135    0.1981 C   0  0  0  0  0  0
   -4.9978    4.1602    0.2752 C   0  0  0  0  0  0
   -4.3479    2.8163   -0.0839 C   0  0  0  0  0  0
   -2.8151    2.8627   -0.0055 C   0  0  0  0  0  0
   -2.1646    1.5234   -0.3802 C   0  0  0  0  0  0
   -0.6318    1.5716   -0.3046 C   0  0  0  0  0  0
    0.0189    0.2367   -0.6917 C   0  0  0  0  0  0
    1.5308    0.2942   -0.6316 C   0  0  1  0  0  0
    2.0962    0.3308    0.6821 O   0  0  0  0  0  0
    2.3717   -0.8411   -0.1039 C   0  0  2  0  0  0
    3.8222   -1.0246   -0.5071 C   0  0  2  0  0  0
    3.8465   -1.9153   -1.6211 O   0  0  0  0  0  0
    4.8921   -1.9597   -2.4836 C   0  0  0  0  0  0
    5.8865   -1.2368   -2.3926 O   0  0  0  0  0  0
    4.7102   -2.9756   -3.5601 C   0  0  0  0  0  0
    5.7057   -3.1179   -4.5549 C   0  0  0  0  0  0
    5.5609   -4.0690   -5.5836 C   0  0  0  0  0  0
    4.4196   -4.8903   -5.6294 C   0  0  0  0  0  0
    3.4225   -4.7591   -4.6454 C   0  0  0  0  0  0
    3.5650   -3.8081   -3.6163 C   0  0  0  0  0  0
    4.6575   -1.6019    0.6461 C   0  0  0  0  0  0
    4.3141   -2.6461    1.2014 O   0  0  0  0  0  0
    5.7582   -0.9180    0.9863 N   0  0  0  0  0  0
    6.6692   -1.3082    2.0537 C   0  0  0  0  0  0
    7.6185   -0.1639    2.4150 C   0  0  0  0  0  0
    7.6182    0.9135    1.8147 O   0  0  0  0  0  0
    8.4230   -0.4865    3.4392 O   0  0  0  0  0  0
    9.3629    0.4613    3.9156 C   0  0  0  0  0  0
    1.9991    0.9858   -1.3295 H   0  0  0  0  0  0
    1.8504   -1.7363    0.2312 H   0  0  0  0  0  0
   -6.9593    5.0803    0.4583 H   0  0  0  0  0  0
   -6.8636    3.8594   -0.8075 H   0  0  0  0  0  0
   -6.9346    3.3713    0.8855 H   0  0  0  0  0  0
   -4.6287    4.9363   -0.3962 H   0  0  0  0  0  0
   -4.6981    4.4547    1.2816 H   0  0  0  0  0  0
   -4.7220    2.0414    0.5864 H   0  0  0  0  0  0
   -4.6507    2.5257   -1.0907 H   0  0  0  0  0  0
   -2.4424    3.6441   -0.6691 H   0  0  0  0  0  0
   -2.5116    3.1437    1.0038 H   0  0  0  0  0  0
   -2.5363    0.7413    0.2830 H   0  0  0  0  0  0
   -2.4685    1.2430   -1.3894 H   0  0  0  0  0  0
   -0.2601    2.3589   -0.9617 H   0  0  0  0  0  0
   -0.3267    1.8442    0.7065 H   0  0  0  0  0  0
   -0.3350   -0.5550   -0.0302 H   0  0  0  0  0  0
   -0.2744   -0.0437   -1.7038 H   0  0  0  0  0  0
    4.2140   -0.0465   -0.7968 H   0  0  0  0  0  0
    6.5909   -2.4984   -4.5402 H   0  0  0  0  0  0
    6.3269   -4.1680   -6.3385 H   0  0  0  0  0  0
    4.3091   -5.6201   -6.4180 H   0  0  0  0  0  0
    2.5460   -5.3893   -4.6790 H   0  0  0  0  0  0
    2.7813   -3.7346   -2.8766 H   0  0  0  0  0  0
    5.9786   -0.0717    0.4807 H   0  0  0  0  0  0
    6.1029   -1.5957    2.9406 H   0  0  0  0  0  0
    7.2510   -2.1738    1.7359 H   0  0  0  0  0  0
    9.9342    0.0337    4.7394 H   0  0  0  0  0  0
   10.0615    0.7472    3.1282 H   0  0  0  0  0  0
    8.8602    1.3580    4.2801 H   0  0  0  0  0  0
  1  2  1  0  0  0
  1 31  1  0  0  0
  1 32  1  0  0  0
  1 33  1  0  0  0
  2  3  1  0  0  0
  2 34  1  0  0  0
  2 35  1  0  0  0
  3  4  1  0  0  0
  3 36  1  0  0  0
  3 37  1  0  0  0
  4  5  1  0  0  0
  4 38  1  0  0  0
  4 39  1  0  0  0
  5  6  1  0  0  0
  5 40  1  0  0  0
  5 41  1  0  0  0
  6  7  1  0  0  0
  6 42  1  0  0  0
  6 43  1  0  0  0
  7  8  1  0  0  0
  7 44  1  0  0  0
  7 45  1  0  0  0
  8 29  1  0  0  0
  8 10  1  0  0  0
  8  9  1  0  0  0
  9 10  1  0  0  0
 10 30  1  0  0  0
 10 11  1  0  0  0
 11 12  1  0  0  0
 11 21  1  0  0  0
 11 46  1  0  0  0
 12 13  1  0  0  0
 13 14  2  0  0  0
 13 15  1  0  0  0
 15 20  1  0  0  0
 15 16  2  0  0  0
 16 17  1  0  0  0
 16 47  1  0  0  0
 17 18  2  0  0  0
 17 48  1  0  0  0
 18 19  1  0  0  0
 18 49  1  0  0  0
 19 20  2  0  0  0
 19 50  1  0  0  0
 20 51  1  0  0  0
 21 22  2  0  0  0
 21 23  1  0  0  0
 23 24  1  0  0  0
 23 52  1  0  0  0
 24 25  1  0  0  0
 24 53  1  0  0  0
 24 54  1  0  0  0
 25 26  2  0  0  0
 25 27  1  0  0  0
 27 28  1  0  0  0
 28 55  1  0  0  0
 28 56  1  0  0  0
 28 57  1  0  0  0
M  END
$$$$
295
                    3D
 Schrodinger Suite 2021-2.
 60 62  0  0  1  0            999 V2000
   -2.3644   -1.0435   -1.9991 C   0  0  0  0  0  0
   -1.7415   -1.6881   -0.7542 C   0  0  0  0  0  0
   -0.3758   -1.3188   -0.6155 O   0  0  0  0  0  0
   -0.0251   -0.1610   -0.0120 C   0  0  0  0  0  0
   -0.8434    0.6477    0.4298 O   0  0  0  0  0  0
    1.4572   -0.0141    0.1122 C   0  0  0  0  0  0
    2.0614    1.2031    0.1150 C   0  0  0  0  0  0
    1.3204    2.5325   -0.0766 C   0  0  0  0  0  0
    2.2118    3.7538   -0.3640 C   0  0  0  0  0  0
    3.4463    1.3061    0.2717 N   0  0  0  0  0  0
    4.2555    0.3219    0.3113 C   0  0  0  0  0  0
    5.7504    0.6317    0.4533 C   0  0  0  0  0  0
    6.0820    2.0756    0.8766 C   0  0  0  0  0  0
    3.7825   -1.1047    0.2477 C   0  0  0  0  0  0
    4.6056   -2.1718    0.0542 C   0  0  0  0  0  0
    4.0984   -3.4136   -0.0448 O   0  0  0  0  0  0
    5.9692   -2.0305   -0.0826 O   0  0  0  0  0  0
    6.7701   -3.2044   -0.2081 C   0  0  0  0  0  0
    7.0188   -3.8482    1.1629 C   0  0  0  0  0  0
    2.2586   -1.3101    0.2917 C   0  0  1  0  0  0
    1.8253   -2.0757    1.5419 C   0  0  0  0  0  0
    2.1266   -1.5725    2.8258 C   0  0  0  0  0  0
    1.7225   -2.2768    3.9755 C   0  0  0  0  0  0
    1.0074   -3.4831    3.8493 C   0  0  0  0  0  0
    0.6901   -3.9904    2.5715 C   0  0  0  0  0  0
   -0.0370   -5.1995    2.4658 N   0  0  0  0  0  0
   -0.0369   -6.3455    3.2467 C   0  0  0  0  0  0
   -0.9648   -7.1851    2.6704 C   0  0  0  0  0  0
   -1.5415   -6.5677    1.5583 N   0  0  0  0  0  0
   -0.9444   -5.3840    1.4958 C   0  0  0  0  0  0
    1.1129   -3.2880    1.4207 C   0  0  0  0  0  0
   -3.3989   -1.3640   -2.1219 H   0  0  0  0  0  0
   -2.3611    0.0445   -1.9287 H   0  0  0  0  0  0
   -1.8187   -1.3240   -2.9001 H   0  0  0  0  0  0
   -2.3070   -1.4286    0.1420 H   0  0  0  0  0  0
   -1.7890   -2.7733   -0.8463 H   0  0  0  0  0  0
    0.6191    2.4311   -0.9057 H   0  0  0  0  0  0
    0.7307    2.7320    0.8185 H   0  0  0  0  0  0
    1.6028    4.6439   -0.5217 H   0  0  0  0  0  0
    2.8864    3.9643    0.4666 H   0  0  0  0  0  0
    2.8127    3.6038   -1.2616 H   0  0  0  0  0  0
    6.1756   -0.0266    1.2110 H   0  0  0  0  0  0
    6.2490    0.4161   -0.4923 H   0  0  0  0  0  0
    7.1579    2.2017    0.9979 H   0  0  0  0  0  0
    5.7522    2.7996    0.1304 H   0  0  0  0  0  0
    5.6134    2.3315    1.8278 H   0  0  0  0  0  0
    4.8208   -4.0043   -0.1932 H   0  0  0  0  0  0
    6.3570   -3.9195   -0.9210 H   0  0  0  0  0  0
    7.7277   -2.8949   -0.6270 H   0  0  0  0  0  0
    7.6860   -4.7055    1.0726 H   0  0  0  0  0  0
    7.4811   -3.1365    1.8471 H   0  0  0  0  0  0
    6.0930   -4.1965    1.6208 H   0  0  0  0  0  0
    2.0364   -1.9258   -0.5814 H   0  0  0  0  0  0
    2.6693   -0.6442    2.9311 H   0  0  0  0  0  0
    1.9571   -1.8888    4.9557 H   0  0  0  0  0  0
    0.6952   -4.0116    4.7381 H   0  0  0  0  0  0
    0.5987   -6.4683    4.1114 H   0  0  0  0  0  0
   -1.2647   -8.1781    2.9713 H   0  0  0  0  0  0
   -1.1868   -4.6515    0.7394 H   0  0  0  0  0  0
    0.8910   -3.6750    0.4372 H   0  0  0  0  0  0
  1  2  1  0  0  0
  1 32  1  0  0  0
  1 33  1  0  0  0
  1 34  1  0  0  0
  2  3  1  0  0  0
  2 35  1  0  0  0
  2 36  1  0  0  0
  3  4  1  0  0  0
  4  5  2  0  0  0
  4  6  1  0  0  0
  6 20  1  0  0  0
  6  7  2  0  0  0
  7  8  1  0  0  0
  7 10  1  0  0  0
  8  9  1  0  0  0
  8 37  1  0  0  0
  8 38  1  0  0  0
  9 39  1  0  0  0
  9 40  1  0  0  0
  9 41  1  0  0  0
 10 11  2  0  0  0
 11 12  1  0  0  0
 11 14  1  0  0  0
 12 13  1  0  0  0
 12 42  1  0  0  0
 12 43  1  0  0  0
 13 44  1  0  0  0
 13 45  1  0  0  0
 13 46  1  0  0  0
 14 15  2  0  0  0
 14 20  1  0  0  0
 15 16  1  0  0  0
 15 17  1  0  0  0
 16 47  1  0  0  0
 17 18  1  0  0  0
 18 19  1  0  0  0
 18 48  1  0  0  0
 18 49  1  0  0  0
 19 50  1  0  0  0
 19 51  1  0  0  0
 19 52  1  0  0  0
 20 21  1  0  0  0
 20 53  1  0  0  0
 21 31  1  0  0  0
 21 22  2  0  0  0
 22 23  1  0  0  0
 22 54  1  0  0  0
 23 24  2  0  0  0
 23 55  1  0  0  0
 24 25  1  0  0  0
 24 56  1  0  0  0
 25 26  1  0  0  0
 25 31  2  0  0  0
 26 30  1  0  0  0
 26 27  1  0  0  0
 27 28  2  0  0  0
 27 57  1  0  0  0
 28 29  1  0  0  0
 28 58  1  0  0  0
 29 30  2  0  0  0
 30 59  1  0  0  0
 31 60  1  0  0  0
M  END
$$$$
296
                    3D
 Schrodinger Suite 2021-2.
 44 46  0  0  1  0            999 V2000
   -2.5513    1.4894   -3.6295 N   0  0  0  0  0  0
   -2.7718    1.9258   -2.5811 C   0  0  0  0  0  0
   -3.0529    2.4794   -1.2465 C   0  0  1  0  0  0
   -4.2273    3.4655   -1.2906 C   0  0  0  0  0  0
   -4.5517    3.9804    0.1192 C   0  0  0  0  0  0
   -4.8355    2.8817    0.9778 O   0  0  0  0  0  0
   -3.7264    2.0054    1.1430 C   0  0  0  0  0  0
   -3.3442    1.3759   -0.2118 C   0  0  2  0  0  0
   -2.2213    0.4619   -0.0689 N   0  0  0  0  0  0
   -2.2029   -0.9031   -0.2861 C   0  0  0  0  0  0
   -0.9284   -1.3096   -0.0157 C   0  0  0  0  0  0
   -0.3930   -2.7063   -0.1430 C   0  0  0  0  0  0
   -1.2848   -3.6848    0.0359 N   0  0  0  0  0  0
    0.7980   -2.9261   -0.3539 O   0  0  0  0  0  0
   -0.2198   -0.1295    0.3504 C   0  0  0  0  0  0
    1.1434   -0.1107    0.6848 N   0  0  0  0  0  0
    1.9364    0.9599    1.1254 C   0  0  0  0  0  0
    3.3261    0.8847    0.9047 C   0  0  0  0  0  0
    4.1811    1.9193    1.3309 C   0  0  0  0  0  0
    3.6586    3.0539    1.9995 C   0  0  0  0  0  0
    4.4166    4.1152    2.4517 O   0  0  0  0  0  0
    5.7691    4.1299    2.3014 C   0  0  0  0  0  0
    6.2693    5.2697    2.8363 F   0  0  0  0  0  0
    6.3616    3.0966    2.9510 F   0  0  0  0  0  0
    6.1343    4.1142    0.9949 F   0  0  0  0  0  0
    2.2704    3.1176    2.2325 C   0  0  0  0  0  0
    1.4155    2.0830    1.8073 C   0  0  0  0  0  0
   -1.0087    0.9346    0.3153 N   0  0  0  0  0  0
   -2.1584    3.0270   -0.9475 H   0  0  0  0  0  0
   -4.1964    0.7923   -0.5640 H   0  0  0  0  0  0
   -3.9920    4.3018   -1.9496 H   0  0  0  0  0  0
   -5.1070    2.9748   -1.7094 H   0  0  0  0  0  0
   -3.7227    4.5662    0.5192 H   0  0  0  0  0  0
   -5.4212    4.6372    0.0881 H   0  0  0  0  0  0
   -2.8886    2.5528    1.5784 H   0  0  0  0  0  0
   -4.0016    1.2268    1.8550 H   0  0  0  0  0  0
   -3.0764   -1.4495   -0.6107 H   0  0  0  0  0  0
   -2.2495   -3.4606    0.2300 H   0  0  0  0  0  0
   -0.9871   -4.6482   -0.0187 H   0  0  0  0  0  0
    1.6411   -0.9674    0.4868 H   0  0  0  0  0  0
    3.7467    0.0283    0.3975 H   0  0  0  0  0  0
    5.2368    1.8172    1.1328 H   0  0  0  0  0  0
    1.8542    3.9690    2.7507 H   0  0  0  0  0  0
    0.3636    2.1652    2.0317 H   0  0  0  0  0  0
  1  2  3  0  0  0
  2  3  1  0  0  0
  3 29  1  0  0  0
  3  8  1  0  0  0
  3  4  1  0  0  0
  4  5  1  0  0  0
  4 31  1  0  0  0
  4 32  1  0  0  0
  5  6  1  0  0  0
  5 33  1  0  0  0
  5 34  1  0  0  0
  6  7  1  0  0  0
  7  8  1  0  0  0
  7 35  1  0  0  0
  7 36  1  0  0  0
  8 30  1  0  0  0
  8  9  1  0  0  0
  9 28  1  0  0  0
  9 10  1  0  0  0
 10 11  2  0  0  0
 10 37  1  0  0  0
 11 12  1  0  0  0
 11 15  1  0  0  0
 12 13  1  0  0  0
 12 14  2  0  0  0
 13 38  1  0  0  0
 13 39  1  0  0  0
 15 16  1  0  0  0
 15 28  2  0  0  0
 16 17  1  0  0  0
 16 40  1  0  0  0
 17 27  1  0  0  0
 17 18  2  0  0  0
 18 19  1  0  0  0
 18 41  1  0  0  0
 19 20  2  0  0  0
 19 42  1  0  0  0
 20 21  1  0  0  0
 20 26  1  0  0  0
 21 22  1  0  0  0
 22 23  1  0  0  0
 22 24  1  0  0  0
 22 25  1  0  0  0
 26 27  2  0  0  0
 26 43  1  0  0  0
 27 44  1  0  0  0
M  END
$$$$
297
                    3D
 Schrodinger Suite 2021-2.
 51 55  0  0  1  0            999 V2000
   -1.3330    5.4392   -2.2606 O   0  0  0  0  0  0
   -0.7314    4.9079   -1.3267 C   0  0  0  0  0  0
   -1.1786    3.5447   -0.8789 C   0  0  0  0  0  0
   -2.5326    3.3029   -0.5687 C   0  0  0  0  0  0
   -2.9148    1.9992   -0.1984 C   0  0  0  0  0  0
   -2.0484    0.9664   -0.1193 N   0  0  0  0  0  0
   -0.7484    1.1915   -0.4084 C   0  0  0  0  0  0
    0.0911    0.0716   -0.3065 N   0  0  0  0  0  0
    1.4564    0.0238   -0.0139 C   0  0  0  0  0  0
    2.1899   -1.0885   -0.0757 N   0  0  0  0  0  0
    3.4472   -0.6436    0.3105 C   0  0  0  0  0  0
    4.6805   -1.3296    0.4391 C   0  0  0  0  0  0
    5.8036   -0.6787    0.8344 N   0  0  0  0  0  0
    5.7747    0.6435    1.1201 C   0  0  0  0  0  0
    6.9999    1.1994    1.5096 N   0  0  0  0  0  0
    7.1284    2.6309    1.7315 C   0  0  0  0  0  0
    7.2213    3.5693    0.5515 C   0  0  0  0  0  0
    8.4372    3.3102    1.4114 C   0  0  0  0  0  0
    4.5918    1.4087    1.0280 C   0  0  0  0  0  0
    3.4291    0.7449    0.6162 C   0  0  0  0  0  0
    2.1172    1.1214    0.4030 N   0  0  0  0  0  0
   -0.2795    2.4577   -0.8306 C   0  0  0  0  0  0
    0.3161    5.4968   -0.6918 N   0  0  0  0  0  0
    0.9406    5.0437    0.5618 C   0  0  0  0  0  0
    2.4204    4.7048    0.3029 C   0  0  0  0  0  0
    3.1577    5.9077   -0.3106 C   0  0  0  0  0  0
    3.2765    6.8605    0.6151 F   0  0  0  0  0  0
    4.3818    5.5342   -0.6830 F   0  0  0  0  0  0
    2.4017    6.4801   -1.5242 C   0  0  0  0  0  0
    0.9241    6.7426   -1.1809 C   0  0  0  0  0  0
    1.7038    2.0352    0.5194 H   0  0  0  0  0  0
   -3.2663    4.0946   -0.6171 H   0  0  0  0  0  0
   -3.9443    1.7795    0.0426 H   0  0  0  0  0  0
   -0.3707   -0.8251   -0.3567 H   0  0  0  0  0  0
    4.7658   -2.3844    0.2244 H   0  0  0  0  0  0
    7.8275    0.6212    1.5345 H   0  0  0  0  0  0
    6.5874    2.9604    2.6165 H   0  0  0  0  0  0
    7.2082    3.1346   -0.4460 H   0  0  0  0  0  0
    6.7407    4.5409    0.6439 H   0  0  0  0  0  0
    8.7623    4.1135    2.0693 H   0  0  0  0  0  0
    9.2346    2.7068    0.9820 H   0  0  0  0  0  0
    4.5635    2.4635    1.2570 H   0  0  0  0  0  0
    0.7466    2.6028   -1.1288 H   0  0  0  0  0  0
    0.8727    5.8476    1.2959 H   0  0  0  0  0  0
    0.4342    4.1988    1.0255 H   0  0  0  0  0  0
    2.9058    4.3963    1.2293 H   0  0  0  0  0  0
    2.4905    3.8577   -0.3788 H   0  0  0  0  0  0
    2.8791    7.3986   -1.8669 H   0  0  0  0  0  0
    2.4564    5.7745   -2.3546 H   0  0  0  0  0  0
    0.4197    7.1487   -2.0584 H   0  0  0  0  0  0
    0.8458    7.5103   -0.4100 H   0  0  0  0  0  0
  1  2  2  0  0  0
  2  3  1  0  0  0
  2 23  1  0  0  0
  3 22  1  0  0  0
  3  4  2  0  0  0
  4  5  1  0  0  0
  4 32  1  0  0  0
  5  6  2  0  0  0
  5 33  1  0  0  0
  6  7  1  0  0  0
  7  8  1  0  0  0
  7 22  2  0  0  0
  8  9  1  0  0  0
  8 34  1  0  0  0
  9 21  1  0  0  0
  9 10  2  0  0  0
 10 11  1  0  0  0
 11 20  2  0  0  0
 11 12  1  0  0  0
 12 13  2  0  0  0
 12 35  1  0  0  0
 13 14  1  0  0  0
 14 15  1  0  0  0
 14 19  2  0  0  0
 15 16  1  0  0  0
 15 36  1  0  0  0
 16 18  1  0  0  0
 16 17  1  0  0  0
 16 37  1  0  0  0
 17 18  1  0  0  0
 17 38  1  0  0  0
 17 39  1  0  0  0
 18 40  1  0  0  0
 18 41  1  0  0  0
 19 20  1  0  0  0
 19 42  1  0  0  0
 20 21  1  0  0  0
 21 31  1  0  0  0
 22 43  1  0  0  0
 23 30  1  0  0  0
 23 24  1  0  0  0
 24 25  1  0  0  0
 24 44  1  0  0  0
 24 45  1  0  0  0
 25 26  1  0  0  0
 25 46  1  0  0  0
 25 47  1  0  0  0
 26 27  1  0  0  0
 26 28  1  0  0  0
 26 29  1  0  0  0
 29 30  1  0  0  0
 29 48  1  0  0  0
 29 49  1  0  0  0
 30 50  1  0  0  0
 30 51  1  0  0  0
M  END
$$$$
298
                    3D
 Schrodinger Suite 2021-2.
 52 53  0  0  1  0            999 V2000
   -0.7725    1.0488    0.0942 C   0  0  0  0  0  0
    0.0159   -0.1319    0.0646 O   0  0  0  0  0  0
    1.3872    0.0042    0.0303 C   0  0  0  0  0  0
    2.0653    1.2438    0.0377 C   0  0  0  0  0  0
    3.4718    1.2947   -0.0019 C   0  0  0  0  0  0
    4.0577    2.5318   -0.0206 O   0  0  0  0  0  0
    4.2397    0.0981   -0.0453 C   0  0  0  0  0  0
    3.5577   -1.1546   -0.0568 C   0  0  0  0  0  0
    2.1473   -1.1775   -0.0174 C   0  0  0  0  0  0
    4.2622   -2.5121   -0.0868 C   0  0  0  0  0  0
    4.3836   -3.1759    1.2967 C   0  0  0  0  0  0
    5.3230   -2.4353    2.2651 C   0  0  0  0  0  0
    5.5769   -3.1937    3.5842 C   0  0  2  0  0  0
    4.3536   -3.3408    4.2839 O   0  0  0  0  0  0
    6.6639   -2.5358    4.4793 C   0  0  2  0  0  0
    6.9118   -3.3741    5.5910 O   0  0  0  0  0  0
    6.3537   -1.1109    4.9680 C   0  0  0  0  0  0
    5.2446   -0.7947    5.3962 O   0  0  0  0  0  0
    7.4849   -0.0809    4.9270 C   0  0  0  0  0  0
    7.3657    0.8874    3.7371 C   0  0  0  0  0  0
    8.0103    0.3505    2.4446 C   0  0  0  0  0  0
    7.6003    1.1032    1.1645 C   0  0  2  0  0  0
    7.9060    2.6074    1.1969 C   0  0  0  0  0  0
    6.2040    0.9205    0.9532 O   0  0  0  0  0  0
    5.7302    0.1814   -0.0737 C   0  0  0  0  0  0
    6.4349   -0.3691   -0.9208 O   0  0  0  0  0  0
    5.9183   -4.1989    3.3327 H   0  0  0  0  0  0
    7.5905   -2.4921    3.9068 H   0  0  0  0  0  0
    8.1730    0.6786    0.3394 H   0  0  0  0  0  0
   -1.8278    0.7763    0.1065 H   0  0  0  0  0  0
   -0.5738    1.6388    0.9897 H   0  0  0  0  0  0
   -0.6014    1.6647   -0.7897 H   0  0  0  0  0  0
    1.5222    2.1763    0.0686 H   0  0  0  0  0  0
    3.4318    3.2395    0.0031 H   0  0  0  0  0  0
    1.6313   -2.1268   -0.0187 H   0  0  0  0  0  0
    3.6772   -3.1697   -0.7309 H   0  0  0  0  0  0
    5.2374   -2.4691   -0.5647 H   0  0  0  0  0  0
    3.3929   -3.2789    1.7407 H   0  0  0  0  0  0
    4.7581   -4.1902    1.1559 H   0  0  0  0  0  0
    6.2776   -2.2924    1.7603 H   0  0  0  0  0  0
    4.9291   -1.4399    2.4732 H   0  0  0  0  0  0
    4.5260   -3.8065    5.0884 H   0  0  0  0  0  0
    7.6727   -3.0498    6.0481 H   0  0  0  0  0  0
    7.4355    0.4880    5.8558 H   0  0  0  0  0  0
    8.4531   -0.5821    4.9233 H   0  0  0  0  0  0
    6.3149    1.1255    3.5651 H   0  0  0  0  0  0
    7.8402    1.8322    4.0032 H   0  0  0  0  0  0
    9.0951    0.3825    2.5505 H   0  0  0  0  0  0
    7.7623   -0.7010    2.3170 H   0  0  0  0  0  0
    8.9650    2.7882    1.3814 H   0  0  0  0  0  0
    7.6522    3.0733    0.2444 H   0  0  0  0  0  0
    7.3363    3.1184    1.9734 H   0  0  0  0  0  0
  1  2  1  0  0  0
  1 30  1  0  0  0
  1 31  1  0  0  0
  1 32  1  0  0  0
  2  3  1  0  0  0
  3  9  1  0  0  0
  3  4  2  0  0  0
  4  5  1  0  0  0
  4 33  1  0  0  0
  5  6  1  0  0  0
  5  7  2  0  0  0
  6 34  1  0  0  0
  7 25  1  0  0  0
  7  8  1  0  0  0
  8  9  2  0  0  0
  8 10  1  0  0  0
  9 35  1  0  0  0
 10 11  1  0  0  0
 10 36  1  0  0  0
 10 37  1  0  0  0
 11 12  1  0  0  0
 11 38  1  0  0  0
 11 39  1  0  0  0
 12 13  1  0  0  0
 12 40  1  0  0  0
 12 41  1  0  0  0
 13 27  1  0  0  0
 13 14  1  0  0  0
 13 15  1  0  0  0
 14 42  1  0  0  0
 15 28  1  0  0  0
 15 16  1  0  0  0
 15 17  1  0  0  0
 16 43  1  0  0  0
 17 18  2  0  0  0
 17 19  1  0  0  0
 19 20  1  0  0  0
 19 44  1  0  0  0
 19 45  1  0  0  0
 20 21  1  0  0  0
 20 46  1  0  0  0
 20 47  1  0  0  0
 21 22  1  0  0  0
 21 48  1  0  0  0
 21 49  1  0  0  0
 22 29  1  0  0  0
 22 23  1  0  0  0
 22 24  1  0  0  0
 23 50  1  0  0  0
 23 51  1  0  0  0
 23 52  1  0  0  0
 24 25  1  0  0  0
 25 26  2  0  0  0
M  END
$$$$
299
                    3D
 Schrodinger Suite 2021-2.
 59 63  0  0  1  0            999 V2000
   -6.7816    0.4911    2.2605 C   0  0  0  0  0  0
   -6.2819    1.7557    1.5124 C   0  0  1  0  0  0
   -7.1233    1.9505    0.2128 C   0  0  0  0  0  0
   -8.6042    2.2891    0.4736 C   0  0  0  0  0  0
   -8.7631    3.5122    1.3870 C   0  0  1  0  0  0
  -10.1290    3.6968    1.6937 O   0  0  0  0  0  0
   -7.9639    3.3431    2.6907 C   0  0  0  0  0  0
   -6.4754    3.0111    2.4285 C   0  0  2  0  0  0
   -5.7421    4.2578    1.8898 C   0  0  0  0  0  0
   -4.2515    3.9954    1.7036 C   0  0  0  0  0  0
   -3.9965    2.8163    0.7509 C   0  0  1  0  0  0
   -2.4613    2.5881    0.6173 C   0  0  2  0  0  0
   -1.8426    3.2511   -0.6651 C   0  0  0  0  0  0
   -0.7819    2.2744   -1.2392 C   0  0  0  0  0  0
   -0.6277    1.3684   -0.0363 C   0  0  2  0  0  0
    0.0328   -0.0025   -0.0565 C   0  0  1  0  0  0
   -0.3112   -0.7038   -1.2334 O   0  0  0  0  0  0
    1.5649    0.0773    0.0942 C   0  0  0  0  0  0
    2.1939   -1.1811   -0.0392 O   0  0  0  0  0  0
   -0.5119   -0.5776    1.1125 O   0  0  0  0  0  0
   -1.5543    0.2500    1.6819 C   0  0  0  0  0  0
   -2.0103    1.1173    0.5038 C   0  0  1  0  0  0
   -3.0475    0.3705   -0.3718 C   0  0  0  0  0  0
   -4.4344    0.3299    0.2963 C   0  0  0  0  0  0
   -4.7471    1.5436    1.2225 C   0  0  2  0  0  0
   -6.0271    2.7857    3.3976 H   0  0  0  0  0  0
   -4.4022    3.0774   -0.2264 H   0  0  0  0  0  0
   -1.9595    3.0060    1.4925 H   0  0  0  0  0  0
   -4.2919    1.3042    2.1853 H   0  0  0  0  0  0
   -6.7149   -0.3994    1.6360 H   0  0  0  0  0  0
   -6.1942    0.3033    3.1598 H   0  0  0  0  0  0
   -7.8208    0.5613    2.5749 H   0  0  0  0  0  0
   -6.6896    2.7378   -0.4025 H   0  0  0  0  0  0
   -7.1075    1.0528   -0.4023 H   0  0  0  0  0  0
   -9.1067    2.4722   -0.4769 H   0  0  0  0  0  0
   -9.1076    1.4281    0.9141 H   0  0  0  0  0  0
   -8.4269    4.4040    0.8583 H   0  0  0  0  0  0
  -10.6020    3.8353    0.8875 H   0  0  0  0  0  0
   -8.0403    4.2523    3.2886 H   0  0  0  0  0  0
   -8.4167    2.5619    3.3010 H   0  0  0  0  0  0
   -6.1644    4.5851    0.9403 H   0  0  0  0  0  0
   -5.8721    5.0909    2.5816 H   0  0  0  0  0  0
   -3.7680    4.8949    1.3203 H   0  0  0  0  0  0
   -3.8023    3.7935    2.6773 H   0  0  0  0  0  0
   -2.5902    3.4564   -1.4316 H   0  0  0  0  0  0
   -1.3902    4.2084   -0.4041 H   0  0  0  0  0  0
   -1.1617    1.7388   -2.1096 H   0  0  0  0  0  0
    0.1483    2.7716   -1.5151 H   0  0  0  0  0  0
   -0.0586    1.9481    0.6984 H   0  0  0  0  0  0
    0.0773   -0.2500   -1.9652 H   0  0  0  0  0  0
    1.9586    0.7405   -0.6766 H   0  0  0  0  0  0
    1.8136    0.5122    1.0631 H   0  0  0  0  0  0
    3.1248   -1.0661    0.0736 H   0  0  0  0  0  0
   -2.3501   -0.3566    2.1140 H   0  0  0  0  0  0
   -1.1318    0.8597    2.4822 H   0  0  0  0  0  0
   -3.1502    0.8607   -1.3398 H   0  0  0  0  0  0
   -2.7431   -0.6526   -0.5875 H   0  0  0  0  0  0
   -5.1627    0.2248   -0.5038 H   0  0  0  0  0  0
   -4.5127   -0.5854    0.8835 H   0  0  0  0  0  0
  1  2  1  0  0  0
  1 30  1  0  0  0
  1 31  1  0  0  0
  1 32  1  0  0  0
  2  8  1  0  0  0
  2 25  1  0  0  0
  2  3  1  0  0  0
  3  4  1  0  0  0
  3 33  1  0  0  0
  3 34  1  0  0  0
  4  5  1  0  0  0
  4 35  1  0  0  0
  4 36  1  0  0  0
  5  6  1  0  0  0
  5  7  1  0  0  0
  5 37  1  0  0  0
  6 38  1  0  0  0
  7  8  1  0  0  0
  7 39  1  0  0  0
  7 40  1  0  0  0
  8 26  1  0  0  0
  8  9  1  0  0  0
  9 10  1  0  0  0
  9 41  1  0  0  0
  9 42  1  0  0  0
 10 11  1  0  0  0
 10 43  1  0  0  0
 10 44  1  0  0  0
 11 27  1  0  0  0
 11 25  1  0  0  0
 11 12  1  0  0  0
 12 28  1  0  0  0
 12 22  1  0  0  0
 12 13  1  0  0  0
 13 14  1  0  0  0
 13 45  1  0  0  0
 13 46  1  0  0  0
 14 15  1  0  0  0
 14 47  1  0  0  0
 14 48  1  0  0  0
 15 22  1  0  0  0
 15 16  1  0  0  0
 15 49  1  0  0  0
 16 17  1  0  0  0
 16 18  1  0  0  0
 16 20  1  0  0  0
 17 50  1  0  0  0
 18 19  1  0  0  0
 18 51  1  0  0  0
 18 52  1  0  0  0
 19 53  1  0  0  0
 20 21  1  0  0  0
 21 22  1  0  0  0
 21 54  1  0  0  0
 21 55  1  0  0  0
 22 23  1  0  0  0
 23 24  1  0  0  0
 23 56  1  0  0  0
 23 57  1  0  0  0
 24 25  1  0  0  0
 24 58  1  0  0  0
 24 59  1  0  0  0
 25 29  1  0  0  0
M  END
$$$$
300
                    3D
 Schrodinger Suite 2021-2.
 45 48  0  0  1  0            999 V2000
   -2.3525    1.3581    3.1815 C   0  0  0  0  0  0
   -1.6404    0.9064    2.0394 O   0  0  0  0  0  0
   -1.1611    1.8457    1.1490 C   0  0  0  0  0  0
   -1.4203    3.2354    1.2681 C   0  0  0  0  0  0
   -0.9004    4.1460    0.3291 C   0  0  0  0  0  0
   -0.1135    3.6841   -0.7400 C   0  0  0  0  0  0
    0.1528    2.3095   -0.8683 C   0  0  0  0  0  0
   -0.3657    1.3900    0.0681 C   0  0  0  0  0  0
   -0.0420   -0.0893   -0.1024 C   0  0  0  0  0  0
    1.3785   -0.4120   -0.0084 N   0  0  0  0  0  0
    2.0475   -0.2195    1.1499 C   0  0  0  0  0  0
    1.3828   -0.0203    2.3167 N   0  0  0  0  0  0
    2.0452    0.1829    3.4597 C   0  0  0  0  0  0
    1.0803    0.4488    4.8635 Cl  0  0  0  0  0  0
    3.3695    0.2068    3.6333 N   0  0  0  0  0  0
    4.0498   -0.0077    2.4696 C   0  0  0  0  0  0
    3.4641   -0.2243    1.1920 C   0  0  0  0  0  0
    4.4524   -0.3912    0.2324 N   0  0  0  0  0  0
    5.5650   -0.2765    0.9046 C   0  0  0  0  0  0
    5.4224   -0.0550    2.2569 N   0  0  0  0  0  0
    6.5215    0.1170    3.2039 C   0  0  2  0  0  0
    6.2671   -0.8623    4.7148 S   0  0  0  0  0  0
    6.7258    0.4943    5.8234 C   0  0  0  0  0  0
    7.4792    1.5429    4.9947 C   0  0  1  0  0  0
    8.8314    1.1493    4.8609 O   0  0  0  0  0  0
    6.8183    1.5814    3.6069 C   0  0  2  0  0  0
    5.6463    2.3713    3.6873 O   0  0  0  0  0  0
    7.4229   -0.2927    2.7462 H   0  0  0  0  0  0
    7.4703    2.0577    2.8736 H   0  0  0  0  0  0
   -2.6259    0.4998    3.7950 H   0  0  0  0  0  0
   -1.7410    2.0202    3.7961 H   0  0  0  0  0  0
   -3.2738    1.8700    2.9013 H   0  0  0  0  0  0
   -2.0185    3.6317    2.0740 H   0  0  0  0  0  0
   -1.1060    5.2013    0.4309 H   0  0  0  0  0  0
    0.2861    4.3829   -1.4602 H   0  0  0  0  0  0
    0.7609    1.9594   -1.6897 H   0  0  0  0  0  0
   -0.5977   -0.7026    0.6067 H   0  0  0  0  0  0
   -0.3870   -0.3950   -1.0902 H   0  0  0  0  0  0
    1.8459   -0.5895   -0.8858 H   0  0  0  0  0  0
    6.5307   -0.3533    0.4263 H   0  0  0  0  0  0
    5.8033    0.9275    6.2113 H   0  0  0  0  0  0
    7.3003    0.1331    6.6769 H   0  0  0  0  0  0
    7.4637    2.5202    5.4791 H   0  0  0  0  0  0
    9.2208    1.1142    5.7213 H   0  0  0  0  0  0
    5.0337    1.9392    4.2634 H   0  0  0  0  0  0
  1  2  1  0  0  0
  1 30  1  0  0  0
  1 31  1  0  0  0
  1 32  1  0  0  0
  2  3  1  0  0  0
  3  8  1  0  0  0
  3  4  2  0  0  0
  4  5  1  0  0  0
  4 33  1  0  0  0
  5  6  2  0  0  0
  5 34  1  0  0  0
  6  7  1  0  0  0
  6 35  1  0  0  0
  7  8  2  0  0  0
  7 36  1  0  0  0
  8  9  1  0  0  0
  9 10  1  0  0  0
  9 37  1  0  0  0
  9 38  1  0  0  0
 10 11  1  0  0  0
 10 39  1  0  0  0
 11 17  1  0  0  0
 11 12  2  0  0  0
 12 13  1  0  0  0
 13 14  1  0  0  0
 13 15  2  0  0  0
 15 16  1  0  0  0
 16 20  1  0  0  0
 16 17  2  0  0  0
 17 18  1  0  0  0
 18 19  2  0  0  0
 19 20  1  0  0  0
 19 40  1  0  0  0
 20 21  1  0  0  0
 21 28  1  0  0  0
 21 26  1  0  0  0
 21 22  1  0  0  0
 22 23  1  0  0  0
 23 24  1  0  0  0
 23 41  1  0  0  0
 23 42  1  0  0  0
 24 25  1  0  0  0
 24 26  1  0  0  0
 24 43  1  0  0  0
 25 44  1  0  0  0
 26 29  1  0  0  0
 26 27  1  0  0  0
 27 45  1  0  0  0
M  END
$$$$
301
                    3D
 Schrodinger Suite 2021-2.
 34 35  0  0  1  0            999 V2000
   -3.9245    6.4116    0.1820 C   0  0  0  0  0  0
   -2.8523    5.4429    0.0126 N   0  0  0  0  0  0
   -3.0416    4.1650   -0.3433 C   0  0  0  0  0  0
   -4.1552    3.6838   -0.5640 O   0  0  0  0  0  0
   -1.8698    3.5054   -0.4222 N   0  0  0  0  0  0
   -1.6762    2.2104   -0.7464 C   0  0  0  0  0  0
   -2.5659    1.4069   -1.0317 O   0  0  0  0  0  0
   -0.2231    1.7459   -0.7529 C   0  0  0  0  0  0
    0.4491    1.5664    0.9274 S   0  0  0  0  0  0
    2.1101    0.9853    0.6285 C   0  0  0  0  0  0
    2.5372    0.9396   -0.6345 N   0  0  0  0  0  0
    3.8001    0.5100   -0.8406 C   0  0  0  0  0  0
    4.2502    0.4692   -2.1301 O   0  0  0  0  0  0
    4.6326    0.1211    0.2399 C   0  0  0  0  0  0
    6.0087   -0.3124    0.0191 C   0  0  0  0  0  0
    7.0996   -0.6561   -0.1551 N   0  0  0  0  0  0
    4.0603    0.2021    1.5384 C   0  0  0  0  0  0
    4.7508   -0.1496    2.7762 C   0  0  0  0  0  0
    5.0428    0.6529    3.8495 C   0  0  0  0  0  0
    5.7162   -0.0433    4.8963 C   0  0  0  0  0  0
    5.9192   -1.3681    4.6104 C   0  0  0  0  0  0
    5.2809   -1.7932    3.0450 S   0  0  0  0  0  0
    2.7972    0.6491    1.7192 N   0  0  0  0  0  0
   -3.5111    7.3772    0.4733 H   0  0  0  0  0  0
   -4.4786    6.5443   -0.7481 H   0  0  0  0  0  0
   -4.6194    6.0901    0.9588 H   0  0  0  0  0  0
   -1.9099    5.7655    0.1766 H   0  0  0  0  0  0
   -1.0401    4.0399   -0.2119 H   0  0  0  0  0  0
   -0.1535    0.7890   -1.2720 H   0  0  0  0  0  0
    0.3780    2.4631   -1.3131 H   0  0  0  0  0  0
    3.5980    0.7487   -2.7540 H   0  0  0  0  0  0
    4.8015    1.7036    3.9169 H   0  0  0  0  0  0
    6.0221    0.4446    5.8099 H   0  0  0  0  0  0
    6.3990   -2.1178    5.2222 H   0  0  0  0  0  0
  1  2  1  0  0  0
  1 24  1  0  0  0
  1 25  1  0  0  0
  1 26  1  0  0  0
  2  3  1  0  0  0
  2 27  1  0  0  0
  3  4  2  0  0  0
  3  5  1  0  0  0
  5  6  1  0  0  0
  5 28  1  0  0  0
  6  7  2  0  0  0
  6  8  1  0  0  0
  8  9  1  0  0  0
  8 29  1  0  0  0
  8 30  1  0  0  0
  9 10  1  0  0  0
 10 23  1  0  0  0
 10 11  2  0  0  0
 11 12  1  0  0  0
 12 13  1  0  0  0
 12 14  2  0  0  0
 13 31  1  0  0  0
 14 15  1  0  0  0
 14 17  1  0  0  0
 15 16  3  0  0  0
 17 18  1  0  0  0
 17 23  2  0  0  0
 18 22  1  0  0  0
 18 19  2  0  0  0
 19 20  1  0  0  0
 19 32  1  0  0  0
 20 21  2  0  0  0
 20 33  1  0  0  0
 21 22  1  0  0  0
 21 34  1  0  0  0
M  END
$$$$
302
                    3D
 Schrodinger Suite 2021-2.
 63 66  0  0  1  0            999 V2000
   -4.3070    0.0404   -0.4209 C   0  0  0  0  0  0
   -2.7975    0.0242   -0.2955 C   0  0  0  0  0  0
   -2.1627   -0.9864    0.4524 C   0  0  0  0  0  0
   -0.7598   -1.0015    0.5722 C   0  0  0  0  0  0
    0.0322   -0.0100   -0.0493 C   0  0  0  0  0  0
    1.5018   -0.0233    0.0775 C   0  0  0  0  0  0
    2.1727    0.0099   -1.0966 N   0  0  0  0  0  0
    3.5219    0.0035   -1.0793 C   0  0  0  0  0  0
    4.2120    0.0447   -2.4316 C   0  0  0  0  0  0
    4.7406    1.3942   -2.7520 N   0  3  0  0  0  0
    5.7255    1.3562   -3.8642 C   0  0  0  0  0  0
    6.3657    2.7360   -4.0901 C   0  0  0  0  0  0
    5.2941    3.8020   -4.3503 C   0  0  0  0  0  0
    4.2716    3.8052   -3.2068 C   0  0  0  0  0  0
    3.6742    2.4040   -2.9945 C   0  0  0  0  0  0
    4.2739   -0.0403    0.1111 C   0  0  0  0  0  0
    3.5854   -0.0745    1.3408 C   0  0  0  0  0  0
    4.3592   -0.1149    2.6503 C   0  0  0  0  0  0
    4.2794    1.1697    3.3892 N   0  3  0  0  0  0
    4.9739    2.2921    2.7025 C   0  0  0  0  0  0
    4.7491    3.6204    3.4442 C   0  0  0  0  0  0
    5.1932    3.5151    4.9089 C   0  0  0  0  0  0
    4.4867    2.3335    5.5859 C   0  0  0  0  0  0
    4.7183    1.0310    4.8017 C   0  0  0  0  0  0
    2.1715   -0.0619    1.3261 C   0  0  0  0  0  0
    1.4706   -0.0643    2.5005 O   0  0  0  0  0  0
   -0.6164    0.9978   -0.7981 C   0  0  0  0  0  0
   -2.0193    1.0182   -0.9206 C   0  0  0  0  0  0
    5.2492    1.6999   -1.9351 H   0  0  0  0  0  0
    3.2986    1.4103    3.4226 H   0  0  0  0  0  0
   -4.6916   -0.9713   -0.5536 H   0  0  0  0  0  0
   -4.7545    0.4633    0.4788 H   0  0  0  0  0  0
   -4.6252    0.6375   -1.2760 H   0  0  0  0  0  0
   -2.7501   -1.7537    0.9355 H   0  0  0  0  0  0
   -0.2890   -1.7870    1.1450 H   0  0  0  0  0  0
    5.0318   -0.6747   -2.4041 H   0  0  0  0  0  0
    3.5344   -0.2879   -3.2202 H   0  0  0  0  0  0
    6.5090    0.6319   -3.6378 H   0  0  0  0  0  0
    5.2332    1.0156   -4.7766 H   0  0  0  0  0  0
    6.9559    3.0142   -3.2159 H   0  0  0  0  0  0
    7.0590    2.6924   -4.9307 H   0  0  0  0  0  0
    5.7550    4.7853   -4.4479 H   0  0  0  0  0  0
    4.7907    3.5968   -5.2960 H   0  0  0  0  0  0
    4.7507    4.1424   -2.2866 H   0  0  0  0  0  0
    3.4767    4.5202   -3.4210 H   0  0  0  0  0  0
    3.0853    2.1108   -3.8650 H   0  0  0  0  0  0
    2.9887    2.4430   -2.1481 H   0  0  0  0  0  0
    5.3540   -0.0457    0.0803 H   0  0  0  0  0  0
    3.9442   -0.9194    3.2592 H   0  0  0  0  0  0
    5.4034   -0.3739    2.4685 H   0  0  0  0  0  0
    6.0412    2.0744    2.6369 H   0  0  0  0  0  0
    4.6093    2.3956    1.6805 H   0  0  0  0  0  0
    5.2944    4.4228    2.9464 H   0  0  0  0  0  0
    3.6930    3.8901    3.3998 H   0  0  0  0  0  0
    6.2741    3.3766    4.9579 H   0  0  0  0  0  0
    4.9722    4.4422    5.4388 H   0  0  0  0  0  0
    4.8458    2.2218    6.6094 H   0  0  0  0  0  0
    3.4167    2.5354    5.6537 H   0  0  0  0  0  0
    4.1667    0.2212    5.2808 H   0  0  0  0  0  0
    5.7741    0.7564    4.8305 H   0  0  0  0  0  0
    0.5333   -0.0645    2.3710 H   0  0  0  0  0  0
   -0.0342    1.7684   -1.2824 H   0  0  0  0  0  0
   -2.4945    1.7999   -1.4951 H   0  0  0  0  0  0
  1  2  1  0  0  0
  1 31  1  0  0  0
  1 32  1  0  0  0
  1 33  1  0  0  0
  2 28  1  0  0  0
  2  3  2  0  0  0
  3  4  1  0  0  0
  3 34  1  0  0  0
  4  5  2  0  0  0
  4 35  1  0  0  0
  5  6  1  0  0  0
  5 27  1  0  0  0
  6 25  1  0  0  0
  6  7  2  0  0  0
  7  8  1  0  0  0
  8  9  1  0  0  0
  8 16  2  0  0  0
  9 10  1  0  0  0
  9 36  1  0  0  0
  9 37  1  0  0  0
 10 29  1  0  0  0
 10 15  1  0  0  0
 10 11  1  0  0  0
 11 12  1  0  0  0
 11 38  1  0  0  0
 11 39  1  0  0  0
 12 13  1  0  0  0
 12 40  1  0  0  0
 12 41  1  0  0  0
 13 14  1  0  0  0
 13 42  1  0  0  0
 13 43  1  0  0  0
 14 15  1  0  0  0
 14 44  1  0  0  0
 14 45  1  0  0  0
 15 46  1  0  0  0
 15 47  1  0  0  0
 16 17  1  0  0  0
 16 48  1  0  0  0
 17 18  1  0  0  0
 17 25  2  0  0  0
 18 19  1  0  0  0
 18 49  1  0  0  0
 18 50  1  0  0  0
 19 30  1  0  0  0
 19 24  1  0  0  0
 19 20  1  0  0  0
 20 21  1  0  0  0
 20 51  1  0  0  0
 20 52  1  0  0  0
 21 22  1  0  0  0
 21 53  1  0  0  0
 21 54  1  0  0  0
 22 23  1  0  0  0
 22 55  1  0  0  0
 22 56  1  0  0  0
 23 24  1  0  0  0
 23 57  1  0  0  0
 23 58  1  0  0  0
 24 59  1  0  0  0
 24 60  1  0  0  0
 25 26  1  0  0  0
 26 61  1  0  0  0
 27 28  2  0  0  0
 27 62  1  0  0  0
 28 63  1  0  0  0
M  CHG  2  10   1  19   1
M  END
$$$$
303
                    3D
 Schrodinger Suite 2021-2.
 61 64  0  0  1  0            999 V2000
   -0.9100    1.9531   -0.1001 N   0  3  0  0  0  0
    0.5240    1.6700    0.0809 C   0  0  0  0  0  0
    0.8265    0.1692   -0.0905 C   0  0  0  0  0  0
    2.3012   -0.1980    0.1594 C   0  0  0  0  0  0
    3.1138    0.7112    0.3324 O   0  0  0  0  0  0
    2.6654   -1.5062    0.1892 N   0  0  0  0  0  0
    1.7502   -2.6249   -0.0667 C   0  0  0  0  0  0
    1.4839   -3.4055    1.2317 C   0  0  1  0  0  0
    0.6094   -4.6243    0.9564 C   0  0  0  0  0  0
    1.0973   -5.6963    0.1760 C   0  0  0  0  0  0
    0.2839   -6.8169   -0.0799 C   0  0  0  0  0  0
   -1.0220   -6.8735    0.4429 C   0  0  0  0  0  0
   -1.5138   -5.8090    1.2222 C   0  0  0  0  0  0
   -0.7010   -4.6875    1.4778 C   0  0  0  0  0  0
    2.7824   -3.7392    1.9673 C   0  0  0  0  0  0
    2.7891   -4.7149    2.9904 C   0  0  0  0  0  0
    3.9785   -5.0264    3.6744 C   0  0  0  0  0  0
    5.1717   -4.3578    3.3486 C   0  0  0  0  0  0
    5.1722   -3.3727    2.3443 C   0  0  0  0  0  0
    3.9842   -3.0530    1.6507 C   0  0  0  0  0  0
    4.0176   -1.9480    0.5940 C   0  0  1  0  0  0
    4.8958   -2.3294   -0.6252 C   0  0  0  0  0  0
    4.9380   -1.2690   -1.6640 N   0  3  0  0  0  0
    5.8930   -0.1763   -1.3421 C   0  0  0  0  0  0
    5.7610    0.9770   -2.3494 C   0  0  0  0  0  0
    5.9759    0.4760   -3.7841 C   0  0  0  0  0  0
    5.0258   -0.6916   -4.0845 C   0  0  0  0  0  0
    5.1635   -1.8045   -3.0309 C   0  0  0  0  0  0
   -1.0723    2.9448    0.0044 H   0  0  0  0  0  0
   -1.4450    1.4522    0.5949 H   0  0  0  0  0  0
   -1.2005    1.6621   -1.0227 H   0  0  0  0  0  0
    4.0168   -0.8558   -1.6786 H   0  0  0  0  0  0
    1.0855    2.2601   -0.6445 H   0  0  0  0  0  0
    0.8174    2.0118    1.0744 H   0  0  0  0  0  0
    0.2037   -0.3974    0.6035 H   0  0  0  0  0  0
    0.5540   -0.1392   -1.1008 H   0  0  0  0  0  0
    0.8072   -2.3308   -0.5247 H   0  0  0  0  0  0
    2.2183   -3.2789   -0.8024 H   0  0  0  0  0  0
    0.9323   -2.7457    1.9033 H   0  0  0  0  0  0
    2.0989   -5.6632   -0.2270 H   0  0  0  0  0  0
    0.6619   -7.6337   -0.6770 H   0  0  0  0  0  0
   -1.6458   -7.7333    0.2474 H   0  0  0  0  0  0
   -2.5151   -5.8529    1.6245 H   0  0  0  0  0  0
   -1.0893   -3.8776    2.0778 H   0  0  0  0  0  0
    1.8806   -5.2339    3.2585 H   0  0  0  0  0  0
    3.9741   -5.7767    4.4514 H   0  0  0  0  0  0
    6.0846   -4.5942    3.8753 H   0  0  0  0  0  0
    6.0914   -2.8538    2.1149 H   0  0  0  0  0  0
    4.5198   -1.1279    1.1088 H   0  0  0  0  0  0
    5.9134   -2.5713   -0.3157 H   0  0  0  0  0  0
    4.4973   -3.2462   -1.0608 H   0  0  0  0  0  0
    5.7107    0.2036   -0.3374 H   0  0  0  0  0  0
    6.9121   -0.5665   -1.3482 H   0  0  0  0  0  0
    4.7719    1.4289   -2.2606 H   0  0  0  0  0  0
    6.4819    1.7612   -2.1161 H   0  0  0  0  0  0
    5.8147    1.2863   -4.4956 H   0  0  0  0  0  0
    7.0095    0.1512   -3.9096 H   0  0  0  0  0  0
    3.9966   -0.3304   -4.1013 H   0  0  0  0  0  0
    5.2297   -1.0909   -5.0785 H   0  0  0  0  0  0
    6.1526   -2.2617   -3.0874 H   0  0  0  0  0  0
    4.4367   -2.5891   -3.2457 H   0  0  0  0  0  0
  1 29  1  0  0  0
  1 30  1  0  0  0
  1 31  1  0  0  0
  1  2  1  0  0  0
  2  3  1  0  0  0
  2 33  1  0  0  0
  2 34  1  0  0  0
  3  4  1  0  0  0
  3 35  1  0  0  0
  3 36  1  0  0  0
  4  5  2  0  0  0
  4  6  1  0  0  0
  6 21  1  0  0  0
  6  7  1  0  0  0
  7  8  1  0  0  0
  7 37  1  0  0  0
  7 38  1  0  0  0
  8  9  1  0  0  0
  8 15  1  0  0  0
  8 39  1  0  0  0
  9 14  1  0  0  0
  9 10  2  0  0  0
 10 11  1  0  0  0
 10 40  1  0  0  0
 11 12  2  0  0  0
 11 41  1  0  0  0
 12 13  1  0  0  0
 12 42  1  0  0  0
 13 14  2  0  0  0
 13 43  1  0  0  0
 14 44  1  0  0  0
 15 20  2  0  0  0
 15 16  1  0  0  0
 16 17  2  0  0  0
 16 45  1  0  0  0
 17 18  1  0  0  0
 17 46  1  0  0  0
 18 19  2  0  0  0
 18 47  1  0  0  0
 19 20  1  0  0  0
 19 48  1  0  0  0
 20 21  1  0  0  0
 21 22  1  0  0  0
 21 49  1  0  0  0
 22 23  1  0  0  0
 22 50  1  0  0  0
 22 51  1  0  0  0
 23 32  1  0  0  0
 23 28  1  0  0  0
 23 24  1  0  0  0
 24 25  1  0  0  0
 24 52  1  0  0  0
 24 53  1  0  0  0
 25 26  1  0  0  0
 25 54  1  0  0  0
 25 55  1  0  0  0
 26 27  1  0  0  0
 26 56  1  0  0  0
 26 57  1  0  0  0
 27 28  1  0  0  0
 27 58  1  0  0  0
 27 59  1  0  0  0
 28 60  1  0  0  0
 28 61  1  0  0  0
M  CHG  2   1   1  23   1
M  END
$$$$
304
                    3D
 Schrodinger Suite 2021-2.
 62 65  0  0  1  0            999 V2000
   -0.8801    3.0527   -0.5786 C   0  0  0  0  0  0
   -1.1664    1.5998   -0.3193 C   0  0  0  0  0  0
   -2.3664    0.9781   -0.1253 C   0  0  0  0  0  0
   -3.6948    1.5867   -0.1329 C   0  0  0  0  0  0
   -4.0038    2.8923   -0.1900 N   0  0  0  0  0  0
   -5.3849    2.8969   -0.1736 C   0  0  0  0  0  0
   -6.3397    3.9379   -0.2137 C   0  0  0  0  0  0
   -7.7190    3.6328   -0.1843 C   0  0  0  0  0  0
   -8.1591    2.2920   -0.1139 C   0  0  0  0  0  0
   -7.2208    1.2413   -0.0722 C   0  0  0  0  0  0
   -5.8552    1.5679   -0.1034 C   0  0  0  0  0  0
   -4.7605    0.7257   -0.0746 O   0  0  0  0  0  0
   -2.1387   -0.4032    0.0806 C   0  0  0  0  0  0
   -0.7883   -0.6339    0.0234 C   0  0  0  0  0  0
   -0.0817   -1.9784    0.1751 C   0  0  0  0  0  0
   -1.0882   -3.0696    0.6114 C   0  0  0  0  0  0
    1.0108   -1.9634    1.2690 C   0  0  0  0  0  0
    0.5049   -2.4585   -1.1710 C   0  0  0  0  0  0
   -0.1776    0.6124   -0.2264 N   0  0  0  0  0  0
    1.2504    0.8898   -0.3658 C   0  0  0  0  0  0
    1.8415    1.5100    0.9124 C   0  0  0  0  0  0
    3.3569    1.7434    0.7967 C   0  0  0  0  0  0
    3.9289    2.3709    2.0149 N   0  3  0  0  0  0
    5.1998    3.0880    1.7343 C   0  0  0  0  0  0
    5.7325    3.7980    2.9926 C   0  0  0  0  0  0
    5.8800    2.8445    4.1112 N   0  3  0  0  0  0
    4.6208    2.1299    4.4045 C   0  0  0  0  0  0
    4.0877    1.4189    3.1472 C   0  0  0  0  0  0
    3.2671    3.0755    2.3088 H   0  0  0  0  0  0
    6.5889    2.1666    3.8686 H   0  0  0  0  0  0
    6.1788    3.3443    4.9374 H   0  0  0  0  0  0
   -1.5031    3.4240   -1.3924 H   0  0  0  0  0  0
   -1.1057    3.6468    0.3069 H   0  0  0  0  0  0
    0.1514    3.2573   -0.8542 H   0  0  0  0  0  0
   -6.0138    4.9661   -0.2672 H   0  0  0  0  0  0
   -8.4445    4.4324   -0.2157 H   0  0  0  0  0  0
   -9.2164    2.0718   -0.0920 H   0  0  0  0  0  0
   -7.5419    0.2117   -0.0187 H   0  0  0  0  0  0
   -2.8987   -1.1505    0.2541 H   0  0  0  0  0  0
   -1.8781   -3.2119   -0.1272 H   0  0  0  0  0  0
   -0.6016   -4.0373    0.7408 H   0  0  0  0  0  0
   -1.5631   -2.8195    1.5612 H   0  0  0  0  0  0
    1.8767   -1.3593    1.0162 H   0  0  0  0  0  0
    0.6135   -1.5937    2.2148 H   0  0  0  0  0  0
    1.3962   -2.9672    1.4518 H   0  0  0  0  0  0
    1.2590   -1.7936   -1.5827 H   0  0  0  0  0  0
    0.9730   -3.4385   -1.0695 H   0  0  0  0  0  0
   -0.2779   -2.5519   -1.9247 H   0  0  0  0  0  0
    1.7918   -0.0108   -0.6262 H   0  0  0  0  0  0
    1.4039    1.5449   -1.2226 H   0  0  0  0  0  0
    1.3467    2.4573    1.1278 H   0  0  0  0  0  0
    1.6195    0.8586    1.7564 H   0  0  0  0  0  0
    3.8783    0.8100    0.5792 H   0  0  0  0  0  0
    3.5291    2.3983   -0.0590 H   0  0  0  0  0  0
    5.9415    2.3797    1.3611 H   0  0  0  0  0  0
    5.0411    3.8252    0.9461 H   0  0  0  0  0  0
    6.6979    4.2614    2.7878 H   0  0  0  0  0  0
    5.0527    4.5968    3.2923 H   0  0  0  0  0  0
    4.7963    1.4092    5.2035 H   0  0  0  0  0  0
    3.8837    2.8435    4.7757 H   0  0  0  0  0  0
    3.1348    0.9481    3.3858 H   0  0  0  0  0  0
    4.7698    0.6183    2.8560 H   0  0  0  0  0  0
  1  2  1  0  0  0
  1 32  1  0  0  0
  1 33  1  0  0  0
  1 34  1  0  0  0
  2 19  1  0  0  0
  2  3  2  0  0  0
  3  4  1  0  0  0
  3 13  1  0  0  0
  4 12  1  0  0  0
  4  5  2  0  0  0
  5  6  1  0  0  0
  6 11  2  0  0  0
  6  7  1  0  0  0
  7  8  2  0  0  0
  7 35  1  0  0  0
  8  9  1  0  0  0
  8 36  1  0  0  0
  9 10  2  0  0  0
  9 37  1  0  0  0
 10 11  1  0  0  0
 10 38  1  0  0  0
 11 12  1  0  0  0
 13 14  2  0  0  0
 13 39  1  0  0  0
 14 15  1  0  0  0
 14 19  1  0  0  0
 15 16  1  0  0  0
 15 17  1  0  0  0
 15 18  1  0  0  0
 16 40  1  0  0  0
 16 41  1  0  0  0
 16 42  1  0  0  0
 17 43  1  0  0  0
 17 44  1  0  0  0
 17 45  1  0  0  0
 18 46  1  0  0  0
 18 47  1  0  0  0
 18 48  1  0  0  0
 19 20  1  0  0  0
 20 21  1  0  0  0
 20 49  1  0  0  0
 20 50  1  0  0  0
 21 22  1  0  0  0
 21 51  1  0  0  0
 21 52  1  0  0  0
 22 23  1  0  0  0
 22 53  1  0  0  0
 22 54  1  0  0  0
 23 29  1  0  0  0
 23 28  1  0  0  0
 23 24  1  0  0  0
 24 25  1  0  0  0
 24 55  1  0  0  0
 24 56  1  0  0  0
 25 26  1  0  0  0
 25 57  1  0  0  0
 25 58  1  0  0  0
 26 30  1  0  0  0
 26 31  1  0  0  0
 26 27  1  0  0  0
 27 28  1  0  0  0
 27 59  1  0  0  0
 27 60  1  0  0  0
 28 61  1  0  0  0
 28 62  1  0  0  0
M  CHG  2  23   1  26   1
M  END
$$$$
305
                    3D
 Schrodinger Suite 2021-2.
 50 52  0  0  1  0            999 V2000
    1.8151    3.8553    3.3727 C   0  0  0  0  0  0
    0.6026    3.3174    2.8719 O   0  0  0  0  0  0
   -0.5142    4.1053    3.0182 C   0  0  0  0  0  0
   -0.6104    5.3965    3.6309 C   0  0  0  0  0  0
   -1.9115    5.8055    3.5574 C   0  0  0  0  0  0
   -2.6029    4.8036    2.9172 N   0  0  0  0  0  0
   -1.7661    3.7626    2.5760 C   0  0  0  0  0  0
   -2.2081    2.5749    1.8991 C   0  0  0  0  0  0
   -3.3989    1.9752    1.6467 C   0  0  0  0  0  0
   -4.7144    2.4218    2.1279 C   0  0  0  0  0  0
   -5.0049    3.3806    2.8387 O   0  0  0  0  0  0
   -5.6219    1.5499    1.6661 N   0  0  0  0  0  0
   -5.0324    0.5322    0.9230 C   0  0  0  0  0  0
   -5.6727   -0.5520    0.3042 C   0  0  0  0  0  0
   -4.8675   -1.4695   -0.3993 C   0  0  0  0  0  0
   -3.4668   -1.2876   -0.4708 C   0  0  0  0  0  0
   -2.7245   -2.1896   -1.1592 F   0  0  0  0  0  0
   -2.8416   -0.1825    0.1624 C   0  0  0  0  0  0
   -1.3990   -0.0354    0.0481 C   0  0  0  0  0  0
   -0.1945    0.1468   -0.0356 C   0  0  0  0  0  0
    1.2414    0.4739   -0.1047 C   0  0  1  0  0  0
    1.4126    1.9083    0.1468 N   0  0  2  0  0  0
    1.3445    3.0035   -1.1857 S   0  0  0  0  0  0
    1.0123    4.6103   -0.3593 C   0  0  0  0  0  0
    2.6844    3.0446   -1.7903 O   0  0  0  0  0  0
    0.1734    2.6550   -2.0049 O   0  0  0  0  0  0
    2.1182   -0.3225    0.8929 C   0  0  1  0  0  0
    1.8964   -1.8467    0.8694 C   0  0  0  0  0  0
    3.4760   -0.1093    0.5608 O   0  0  0  0  0  0
   -3.6593    0.7376    0.8736 C   0  0  0  0  0  0
   -3.5960    4.8207    2.7295 H   0  0  0  0  0  0
    1.5598    0.2490   -1.1239 H   0  0  0  0  0  0
    1.9510    0.0408    1.9084 H   0  0  0  0  0  0
    2.6270    3.1538    3.1813 H   0  0  0  0  0  0
    2.0658    4.7964    2.8818 H   0  0  0  0  0  0
    1.7606    4.0181    4.4498 H   0  0  0  0  0  0
    0.1861    5.9685    4.0833 H   0  0  0  0  0  0
   -2.4067    6.7028    3.8978 H   0  0  0  0  0  0
   -1.3534    2.0874    1.4729 H   0  0  0  0  0  0
   -6.6154    1.5939    1.8414 H   0  0  0  0  0  0
   -6.7434   -0.6805    0.3645 H   0  0  0  0  0  0
   -5.3238   -2.3174   -0.8888 H   0  0  0  0  0  0
    2.2610    2.0677    0.6898 H   0  0  0  0  0  0
    0.9637    5.3999   -1.1085 H   0  0  0  0  0  0
    0.0614    4.5564    0.1698 H   0  0  0  0  0  0
    1.8109    4.8301    0.3482 H   0  0  0  0  0  0
    0.8938   -2.1149    1.2027 H   0  0  0  0  0  0
    2.0343   -2.2522   -0.1337 H   0  0  0  0  0  0
    2.5976   -2.3548    1.5321 H   0  0  0  0  0  0
    4.0143   -0.5689    1.1867 H   0  0  0  0  0  0
  1  2  1  0  0  0
  1 34  1  0  0  0
  1 35  1  0  0  0
  1 36  1  0  0  0
  2  3  1  0  0  0
  3  7  2  0  0  0
  3  4  1  0  0  0
  4  5  2  0  0  0
  4 37  1  0  0  0
  5  6  1  0  0  0
  5 38  1  0  0  0
  6 31  1  0  0  0
  6  7  1  0  0  0
  7  8  1  0  0  0
  8  9  2  0  0  0
  8 39  1  0  0  0
  9 30  1  0  0  0
  9 10  1  0  0  0
 10 11  2  0  0  0
 10 12  1  0  0  0
 12 13  1  0  0  0
 12 40  1  0  0  0
 13 30  2  0  0  0
 13 14  1  0  0  0
 14 15  2  0  0  0
 14 41  1  0  0  0
 15 16  1  0  0  0
 15 42  1  0  0  0
 16 17  1  0  0  0
 16 18  2  0  0  0
 18 19  1  0  0  0
 18 30  1  0  0  0
 19 20  3  0  0  0
 20 21  1  0  0  0
 21 32  1  0  0  0
 21 22  1  0  0  0
 21 27  1  0  0  0
 22 23  1  0  0  0
 22 43  1  0  0  0
 23 24  1  0  0  0
 23 25  2  0  0  0
 23 26  2  0  0  0
 24 44  1  0  0  0
 24 45  1  0  0  0
 24 46  1  0  0  0
 27 33  1  0  0  0
 27 28  1  0  0  0
 27 29  1  0  0  0
 28 47  1  0  0  0
 28 48  1  0  0  0
 28 49  1  0  0  0
 29 50  1  0  0  0
M  END
$$$$
306
                    3D
 Schrodinger Suite 2021-2.
 50 52  0  0  1  0            999 V2000
   -1.1982    2.8788   -3.3777 C   0  0  0  0  0  0
   -0.6926    1.7158   -2.5191 C   0  0  0  0  0  0
   -1.0993    1.9869   -0.7416 S   0  0  0  0  0  0
   -0.2964    3.1121   -0.2385 O   0  0  0  0  0  0
   -2.5635    2.0068   -0.6042 O   0  0  0  0  0  0
   -0.5316    0.5438    0.0163 N   0  0  2  0  0  0
    0.9014    0.2581    0.1347 C   0  0  2  0  0  0
    1.1180   -1.2607    0.1156 C   0  0  0  0  0  0
    1.5219    0.8931    1.3701 C   0  0  0  0  0  0
    2.7667    1.5495    1.2898 C   0  0  0  0  0  0
    3.3688    2.1256    2.3494 N   0  0  0  0  0  0
    2.7414    2.0667    3.5429 C   0  0  0  0  0  0
    1.4938    1.4344    3.7549 C   0  0  0  0  0  0
    0.8603    1.3994    5.0892 C   0  0  0  0  0  0
    1.0320    2.4432    6.0214 C   0  0  0  0  0  0
    0.4807    2.4537    7.2511 N   0  0  0  0  0  0
   -0.3036    1.4224    7.6573 C   0  0  0  0  0  0
   -0.5338    0.3215    6.7853 C   0  0  0  0  0  0
    0.0530    0.3200    5.5034 C   0  0  0  0  0  0
   -1.3862   -0.8660    7.1927 C   0  0  0  0  0  0
   -2.3211   -0.5320    8.3519 C   0  0  0  0  0  0
   -1.5606    0.1881    9.4671 C   0  0  0  0  0  0
   -0.8901    1.4041    8.9741 N   0  0  0  0  0  0
   -0.9111    2.5072    9.7592 C   0  0  0  0  0  0
   -0.4559    2.2957   10.9993 N   0  0  0  0  0  0
   -1.2572    3.6227    9.3731 O   0  0  0  0  0  0
    0.8841    0.8370    2.6279 C   0  0  0  0  0  0
    1.3995    0.6728   -0.7417 H   0  0  0  0  0  0
   -0.9627    2.7172   -4.4296 H   0  0  0  0  0  0
   -2.2791    2.9906   -3.2911 H   0  0  0  0  0  0
   -0.7383    3.8190   -3.0732 H   0  0  0  0  0  0
   -1.1507    0.7789   -2.8360 H   0  0  0  0  0  0
    0.3871    1.6113   -2.6197 H   0  0  0  0  0  0
   -1.1357   -0.2682   -0.1095 H   0  0  0  0  0  0
    2.1806   -1.5039    0.1432 H   0  0  0  0  0  0
    0.6452   -1.7422    0.9725 H   0  0  0  0  0  0
    0.7027   -1.7064   -0.7888 H   0  0  0  0  0  0
    3.2965    1.6149    0.3510 H   0  0  0  0  0  0
    3.2691    2.5340    4.3609 H   0  0  0  0  0  0
    1.6281    3.3102    5.7783 H   0  0  0  0  0  0
   -0.1130   -0.5208    4.8459 H   0  0  0  0  0  0
   -1.9647   -1.2203    6.3387 H   0  0  0  0  0  0
   -0.7171   -1.6777    7.4805 H   0  0  0  0  0  0
   -3.1242    0.1147    7.9950 H   0  0  0  0  0  0
   -2.7955   -1.4382    8.7296 H   0  0  0  0  0  0
   -2.2634    0.4130   10.2725 H   0  0  0  0  0  0
   -0.8058   -0.4768    9.8891 H   0  0  0  0  0  0
   -0.1562    1.3725   11.2763 H   0  0  0  0  0  0
   -0.4107    3.0645   11.6520 H   0  0  0  0  0  0
   -0.0715    0.3425    2.7210 H   0  0  0  0  0  0
  1  2  1  0  0  0
  1 29  1  0  0  0
  1 30  1  0  0  0
  1 31  1  0  0  0
  2  3  1  0  0  0
  2 32  1  0  0  0
  2 33  1  0  0  0
  3  4  2  0  0  0
  3  5  2  0  0  0
  3  6  1  0  0  0
  6  7  1  0  0  0
  6 34  1  0  0  0
  7 28  1  0  0  0
  7  8  1  0  0  0
  7  9  1  0  0  0
  8 35  1  0  0  0
  8 36  1  0  0  0
  8 37  1  0  0  0
  9 27  1  0  0  0
  9 10  2  0  0  0
 10 11  1  0  0  0
 10 38  1  0  0  0
 11 12  2  0  0  0
 12 13  1  0  0  0
 12 39  1  0  0  0
 13 14  1  0  0  0
 13 27  2  0  0  0
 14 19  1  0  0  0
 14 15  2  0  0  0
 15 16  1  0  0  0
 15 40  1  0  0  0
 16 17  2  0  0  0
 17 23  1  0  0  0
 17 18  1  0  0  0
 18 19  2  0  0  0
 18 20  1  0  0  0
 19 41  1  0  0  0
 20 21  1  0  0  0
 20 42  1  0  0  0
 20 43  1  0  0  0
 21 22  1  0  0  0
 21 44  1  0  0  0
 21 45  1  0  0  0
 22 23  1  0  0  0
 22 46  1  0  0  0
 22 47  1  0  0  0
 23 24  1  0  0  0
 24 25  1  0  0  0
 24 26  2  0  0  0
 25 48  1  0  0  0
 25 49  1  0  0  0
 27 50  1  0  0  0
M  END
$$$$
307
                    3D
 Schrodinger Suite 2021-2.
 57 60  0  0  1  0            999 V2000
   -0.6796   -2.2408    0.5645 C   0  0  0  0  0  0
   -0.7632   -0.7767    1.0433 C   0  0  2  0  0  0
   -2.2484   -0.4064    1.2418 C   0  0  0  0  0  0
   -2.4212    1.0329    1.7293 C   0  0  0  0  0  0
   -1.7252    1.9860    0.7554 C   0  0  0  0  0  0
   -0.2419    1.6199    0.5550 C   0  0  1  0  0  0
    0.6190    1.9799    1.7866 C   0  0  0  0  0  0
   -0.0915    0.1931    0.1132 N   0  3  1  0  0  0
    1.3063   -0.1898   -0.2567 C   0  0  0  0  0  0
    1.9741    0.7504   -1.2791 C   0  0  0  0  0  0
    3.2491    0.1824   -1.7692 N   0  3  0  0  0  0
    3.9523    0.9855   -2.7969 C   0  0  2  0  0  0
    5.1163    0.1917   -3.3915 C   0  0  0  0  0  0
    4.8162   -0.5700   -4.5463 C   0  0  0  0  0  0
    5.8008   -1.3281   -5.2022 C   0  0  0  0  0  0
    7.1137   -1.3362   -4.7096 C   0  0  0  0  0  0
    7.4291   -0.5924   -3.5604 C   0  0  0  0  0  0
    6.4541    0.1677   -2.8791 C   0  0  0  0  0  0
    6.9485    0.8229   -1.7685 O   0  0  0  0  0  0
    6.0841    1.4014   -0.8097 C   0  0  0  0  0  0
    5.3230    2.5856   -1.3591 C   0  0  0  0  0  0
    5.6720    3.8031   -0.8880 N   0  0  0  0  0  0
    5.0176    4.8810   -1.3699 C   0  0  0  0  0  0
    3.9909    4.7922   -2.3303 C   0  0  0  0  0  0
    3.6327    3.5191   -2.8128 C   0  0  0  0  0  0
    4.3121    2.3844   -2.3183 C   0  0  0  0  0  0
   -0.6186    0.1321   -0.7464 H   0  0  0  0  0  0
    3.8729    0.0555   -0.9850 H   0  0  0  0  0  0
    3.0555   -0.7243   -2.1709 H   0  0  0  0  0  0
   -1.2907   -2.8907    1.1919 H   0  0  0  0  0  0
   -1.0358   -2.3471   -0.4608 H   0  0  0  0  0  0
    0.3349   -2.6350    0.6192 H   0  0  0  0  0  0
   -0.2648   -0.7252    2.0119 H   0  0  0  0  0  0
   -2.7898   -0.5377    0.3036 H   0  0  0  0  0  0
   -2.7114   -1.0851    1.9595 H   0  0  0  0  0  0
   -3.4808    1.2794    1.8029 H   0  0  0  0  0  0
   -2.0076    1.1422    2.7321 H   0  0  0  0  0  0
   -2.2387    1.9487   -0.2066 H   0  0  0  0  0  0
   -1.8186    3.0143    1.1069 H   0  0  0  0  0  0
    0.0910    2.2601   -0.2609 H   0  0  0  0  0  0
    0.4773    3.0258    2.0602 H   0  0  0  0  0  0
    0.3657    1.3820    2.6613 H   0  0  0  0  0  0
    1.6834    1.8492    1.5943 H   0  0  0  0  0  0
    1.9218   -0.2776    0.6395 H   0  0  0  0  0  0
    1.2896   -1.1765   -0.7168 H   0  0  0  0  0  0
    1.3095    0.9118   -2.1289 H   0  0  0  0  0  0
    2.1751    1.7214   -0.8274 H   0  0  0  0  0  0
    3.2306    1.1250   -3.6038 H   0  0  0  0  0  0
    3.8136   -0.5754   -4.9485 H   0  0  0  0  0  0
    5.5497   -1.8985   -6.0847 H   0  0  0  0  0  0
    7.8783   -1.9124   -5.2101 H   0  0  0  0  0  0
    8.4434   -0.6098   -3.1887 H   0  0  0  0  0  0
    5.4109    0.6510   -0.3976 H   0  0  0  0  0  0
    6.7013    1.7266    0.0290 H   0  0  0  0  0  0
    5.3195    5.8411   -0.9779 H   0  0  0  0  0  0
    3.4925    5.6807   -2.6889 H   0  0  0  0  0  0
    2.8475    3.4204   -3.5478 H   0  0  0  0  0  0
  1  2  1  0  0  0
  1 30  1  0  0  0
  1 31  1  0  0  0
  1 32  1  0  0  0
  2  8  1  0  0  0
  2  3  1  0  0  0
  2 33  1  0  0  0
  3  4  1  0  0  0
  3 34  1  0  0  0
  3 35  1  0  0  0
  4  5  1  0  0  0
  4 36  1  0  0  0
  4 37  1  0  0  0
  5  6  1  0  0  0
  5 38  1  0  0  0
  5 39  1  0  0  0
  6  7  1  0  0  0
  6  8  1  0  0  0
  6 40  1  0  0  0
  7 41  1  0  0  0
  7 42  1  0  0  0
  7 43  1  0  0  0
  8 27  1  0  0  0
  8  9  1  0  0  0
  9 10  1  0  0  0
  9 44  1  0  0  0
  9 45  1  0  0  0
 10 11  1  0  0  0
 10 46  1  0  0  0
 10 47  1  0  0  0
 11 28  1  0  0  0
 11 29  1  0  0  0
 11 12  1  0  0  0
 12 26  1  0  0  0
 12 13  1  0  0  0
 12 48  1  0  0  0
 13 18  2  0  0  0
 13 14  1  0  0  0
 14 15  2  0  0  0
 14 49  1  0  0  0
 15 16  1  0  0  0
 15 50  1  0  0  0
 16 17  2  0  0  0
 16 51  1  0  0  0
 17 18  1  0  0  0
 17 52  1  0  0  0
 18 19  1  0  0  0
 19 20  1  0  0  0
 20 21  1  0  0  0
 20 53  1  0  0  0
 20 54  1  0  0  0
 21 26  2  0  0  0
 21 22  1  0  0  0
 22 23  2  0  0  0
 23 24  1  0  0  0
 23 55  1  0  0  0
 24 25  2  0  0  0
 24 56  1  0  0  0
 25 26  1  0  0  0
 25 57  1  0  0  0
M  CHG  2   8   1  11   1
M  END
$$$$
308
                    3D
 Schrodinger Suite 2021-2.
 23 24  0  0  1  0            999 V2000
    0.1247   -0.0513    0.0016 N   0  0  0  0  0  0
    1.4974   -0.0141    0.0007 C   0  0  0  0  0  0
    2.0629    1.1943    0.0023 N   0  0  0  0  0  0
    3.4132    1.2390    0.0015 C   0  0  0  0  0  0
    4.0221    2.4597    0.0029 O   0  0  0  0  0  0
    4.1874    0.0571   -0.0010 C   0  0  0  0  0  0
    6.2834    0.1163   -0.0022 I   0  0  0  0  0  0
    3.4771   -1.1659   -0.0027 C   0  0  0  0  0  0
    4.1384   -2.4765   -0.0053 C   0  0  0  0  0  0
    4.4603   -3.1143   -1.2225 C   0  0  0  0  0  0
    5.0992   -4.3694   -1.2271 C   0  0  0  0  0  0
    5.4210   -4.9997   -0.0102 C   0  0  0  0  0  0
    6.2055   -6.5362   -0.0133 Cl  0  0  0  0  0  0
    5.1013   -4.3731    1.2093 C   0  0  0  0  0  0
    4.4623   -3.1181    1.2094 C   0  0  0  0  0  0
    2.1251   -1.1905   -0.0018 N   0  0  0  0  0  0
   -0.4098    0.8052    0.0019 H   0  0  0  0  0  0
   -0.3621   -0.9359   -0.0013 H   0  0  0  0  0  0
    3.4051    3.1751    0.0034 H   0  0  0  0  0  0
    4.2174   -2.6363   -2.1602 H   0  0  0  0  0  0
    5.3416   -4.8464   -2.1653 H   0  0  0  0  0  0
    5.3452   -4.8529    2.1457 H   0  0  0  0  0  0
    4.2210   -2.6428    2.1490 H   0  0  0  0  0  0
  1  2  1  0  0  0
  1 17  1  0  0  0
  1 18  1  0  0  0
  2 16  1  0  0  0
  2  3  2  0  0  0
  3  4  1  0  0  0
  4  5  1  0  0  0
  4  6  2  0  0  0
  5 19  1  0  0  0
  6  7  1  0  0  0
  6  8  1  0  0  0
  8  9  1  0  0  0
  8 16  2  0  0  0
  9 15  1  0  0  0
  9 10  2  0  0  0
 10 11  1  0  0  0
 10 20  1  0  0  0
 11 12  2  0  0  0
 11 21  1  0  0  0
 12 13  1  0  0  0
 12 14  1  0  0  0
 14 15  2  0  0  0
 14 22  1  0  0  0
 15 23  1  0  0  0
M  END
$$$$
309
                    3D
 Schrodinger Suite 2021-2.
 49 51  0  0  1  0            999 V2000
   -4.6411    0.6841    0.5907 C   0  0  0  0  0  0
   -3.3678    1.5355    0.5942 C   0  0  0  0  0  0
   -2.1848    0.6926    0.4893 N   0  0  0  0  0  0
   -0.9305    1.1581    0.4121 C   0  0  0  0  0  0
   -0.6527    2.3578    0.4268 O   0  0  0  0  0  0
   -0.0417    0.1526    0.3188 N   0  0  0  0  0  0
    1.3727    0.2335    0.2076 C   0  0  0  0  0  0
    2.0371   -1.0086    0.1256 C   0  0  0  0  0  0
    3.4470   -1.0554    0.0120 C   0  0  0  0  0  0
    4.1551    0.1750   -0.0292 C   0  0  0  0  0  0
    3.4020    1.3675    0.0625 C   0  0  0  0  0  0
    2.0598    1.3989    0.1780 N   0  0  0  0  0  0
    5.5672    0.1807   -0.1608 C   0  0  0  0  0  0
    6.3753    1.4712   -0.2305 C   0  0  0  0  0  0
    6.1763    2.1992   -1.4773 N   0  0  0  0  0  0
    6.7362    1.8159   -2.6843 C   0  0  0  0  0  0
    7.4710    0.8455   -2.8770 O   0  0  0  0  0  0
    6.3414    2.6829   -3.6285 O   0  0  0  0  0  0
    6.7703    2.5046   -4.9676 C   0  0  0  0  0  0
    6.2521   -1.0464   -0.2519 C   0  0  0  0  0  0
    5.5492   -2.2622   -0.2089 C   0  0  0  0  0  0
    4.1463   -2.2892   -0.0709 C   0  0  0  0  0  0
    3.4765   -3.6009   -0.0216 C   0  0  0  0  0  0
    2.8395   -4.0594    1.1525 C   0  0  0  0  0  0
    2.2237   -5.3269    1.1464 C   0  0  0  0  0  0
    2.2105   -6.1391    0.0688 N   0  0  0  0  0  0
    2.8245   -5.7044   -1.0517 C   0  0  0  0  0  0
    3.4685   -4.4547   -1.1458 C   0  0  0  0  0  0
   -5.5275    1.3143    0.6672 H   0  0  0  0  0  0
   -4.7254    0.1032   -0.3284 H   0  0  0  0  0  0
   -4.6544   -0.0105    1.4310 H   0  0  0  0  0  0
   -3.3908    2.2394   -0.2391 H   0  0  0  0  0  0
   -3.3148    2.1230    1.5120 H   0  0  0  0  0  0
   -2.3314   -0.3061    0.4729 H   0  0  0  0  0  0
   -0.4229   -0.7818    0.3229 H   0  0  0  0  0  0
    1.4548   -1.9175    0.1466 H   0  0  0  0  0  0
    3.8727    2.3382    0.0422 H   0  0  0  0  0  0
    6.1001    2.1171    0.6036 H   0  0  0  0  0  0
    7.4379    1.2589   -0.1000 H   0  0  0  0  0  0
    5.5937    3.0239   -1.4839 H   0  0  0  0  0  0
    6.3593    3.2942   -5.5965 H   0  0  0  0  0  0
    7.8580    2.5457   -5.0365 H   0  0  0  0  0  0
    6.4307    1.5452   -5.3599 H   0  0  0  0  0  0
    7.3267   -1.0616   -0.3626 H   0  0  0  0  0  0
    6.0989   -3.1897   -0.2794 H   0  0  0  0  0  0
    2.8219   -3.4497    2.0442 H   0  0  0  0  0  0
    1.7282   -5.6973    2.0317 H   0  0  0  0  0  0
    2.8025   -6.3727   -1.8999 H   0  0  0  0  0  0
    3.9457   -4.1570   -2.0682 H   0  0  0  0  0  0
  1  2  1  0  0  0
  1 29  1  0  0  0
  1 30  1  0  0  0
  1 31  1  0  0  0
  2  3  1  0  0  0
  2 32  1  0  0  0
  2 33  1  0  0  0
  3  4  1  0  0  0
  3 34  1  0  0  0
  4  5  2  0  0  0
  4  6  1  0  0  0
  6  7  1  0  0  0
  6 35  1  0  0  0
  7 12  1  0  0  0
  7  8  2  0  0  0
  8  9  1  0  0  0
  8 36  1  0  0  0
  9 22  2  0  0  0
  9 10  1  0  0  0
 10 11  1  0  0  0
 10 13  2  0  0  0
 11 12  2  0  0  0
 11 37  1  0  0  0
 13 14  1  0  0  0
 13 20  1  0  0  0
 14 15  1  0  0  0
 14 38  1  0  0  0
 14 39  1  0  0  0
 15 16  1  0  0  0
 15 40  1  0  0  0
 16 17  2  0  0  0
 16 18  1  0  0  0
 18 19  1  0  0  0
 19 41  1  0  0  0
 19 42  1  0  0  0
 19 43  1  0  0  0
 20 21  2  0  0  0
 20 44  1  0  0  0
 21 22  1  0  0  0
 21 45  1  0  0  0
 22 23  1  0  0  0
 23 28  1  0  0  0
 23 24  2  0  0  0
 24 25  1  0  0  0
 24 46  1  0  0  0
 25 26  2  0  0  0
 25 47  1  0  0  0
 26 27  1  0  0  0
 27 28  2  0  0  0
 27 48  1  0  0  0
 28 49  1  0  0  0
M  END
$$$$
310
                    3D
 Schrodinger Suite 2021-2.
 65 70  0  0  1  0            999 V2000
   -0.5237    0.7162    0.2604 O   0  0  0  0  0  0
    0.1235   -0.2733   -0.0810 C   0  0  0  0  0  0
   -0.4311   -1.4319   -0.4681 N   0  0  0  0  0  0
   -1.8651   -1.7063   -0.5243 C   0  0  1  0  0  0
   -2.1517   -2.9881   -1.3453 C   0  0  1  0  0  0
   -1.5838   -4.2367   -0.6286 C   0  0  0  0  0  0
   -2.2332   -4.3702    0.7655 C   0  0  1  0  0  0
   -1.9267   -3.1096    1.6028 C   0  0  0  0  0  0
   -2.4970   -1.8641    0.8851 C   0  0  2  0  0  0
   -4.0259   -2.0191    0.7311 C   0  0  0  0  0  0
   -4.3278   -3.2814   -0.1092 C   0  0  2  0  0  0
   -5.7252   -3.4210   -0.2558 O   0  0  0  0  0  0
   -3.7611   -4.5273    0.6079 C   0  0  0  0  0  0
   -3.6796   -3.1485   -1.5070 C   0  0  0  0  0  0
    1.6235   -0.2731   -0.0452 C   0  0  0  0  0  0
    2.3717   -0.7566   -1.1420 C   0  0  0  0  0  0
    3.7209   -0.7345   -1.1560 N   0  0  0  0  0  0
    4.3305   -0.2244   -0.0815 C   0  0  0  0  0  0
    5.7133   -0.1806   -0.0657 N   0  0  0  0  0  0
    6.5740   -0.5121   -1.1951 C   0  0  0  0  0  0
    8.0119   -0.7797   -0.7285 C   0  0  0  0  0  0
    8.9258   -1.0525   -1.9344 C   0  0  0  0  0  0
    8.8779    0.0457   -2.8396 O   0  0  0  0  0  0
    7.5784    0.2668   -3.3783 C   0  0  0  0  0  0
    6.5915    0.6078   -2.2497 C   0  0  0  0  0  0
    3.7314    0.2562    1.0089 N   0  0  0  0  0  0
    2.3785    0.2341    1.0461 C   0  0  0  0  0  0
    1.7418    0.7635    2.3274 C   0  0  0  0  0  0
    2.5778    0.9856    3.6037 C   0  0  0  0  0  0
    1.3432    0.6030    4.4221 C   0  0  0  0  0  0
    0.8641   -0.1645    3.1885 C   0  0  0  0  0  0
   -2.3335   -0.8607   -1.0323 H   0  0  0  0  0  0
    0.1840   -2.1929   -0.7171 H   0  0  0  0  0  0
   -1.6975   -2.8990   -2.3330 H   0  0  0  0  0  0
   -1.7809   -5.1310   -1.2211 H   0  0  0  0  0  0
   -0.4994   -4.1686   -0.5353 H   0  0  0  0  0  0
   -1.8294   -5.2480    1.2708 H   0  0  0  0  0  0
   -2.3646   -3.2026    2.5974 H   0  0  0  0  0  0
   -0.8515   -3.0062    1.7537 H   0  0  0  0  0  0
   -2.2957   -0.9776    1.4872 H   0  0  0  0  0  0
   -4.4956   -2.0913    1.7130 H   0  0  0  0  0  0
   -4.4460   -1.1329    0.2532 H   0  0  0  0  0  0
   -6.1109   -3.4950    0.6037 H   0  0  0  0  0  0
   -3.9888   -5.4310    0.0406 H   0  0  0  0  0  0
   -4.2279   -4.6511    1.5861 H   0  0  0  0  0  0
   -4.0929   -2.2910   -2.0398 H   0  0  0  0  0  0
   -3.9029   -4.0258   -2.1159 H   0  0  0  0  0  0
    1.8896   -1.1548   -2.0230 H   0  0  0  0  0  0
    6.1463    0.2203    0.7536 H   0  0  0  0  0  0
    6.1968   -1.4251   -1.6578 H   0  0  0  0  0  0
    8.3923    0.0801   -0.1750 H   0  0  0  0  0  0
    8.0358   -1.6288   -0.0445 H   0  0  0  0  0  0
    9.9548   -1.1894   -1.6014 H   0  0  0  0  0  0
    8.6322   -1.9709   -2.4453 H   0  0  0  0  0  0
    7.6292    1.0891   -4.0925 H   0  0  0  0  0  0
    7.2477   -0.6143   -3.9306 H   0  0  0  0  0  0
    5.5953    0.7608   -2.6659 H   0  0  0  0  0  0
    6.8842    1.5514   -1.7868 H   0  0  0  0  0  0
    1.2000    1.6817    2.0917 H   0  0  0  0  0  0
    3.3825    0.2585    3.7267 H   0  0  0  0  0  0
    2.9361    2.0056    3.7443 H   0  0  0  0  0  0
    1.5457   -0.0147    5.2976 H   0  0  0  0  0  0
    0.7101    1.4586    4.6632 H   0  0  0  0  0  0
   -0.2063   -0.1050    2.9892 H   0  0  0  0  0  0
    1.2135   -1.1988    3.1845 H   0  0  0  0  0  0
  1  2  2  0  0  0
  2  3  1  0  0  0
  2 15  1  0  0  0
  3  4  1  0  0  0
  3 33  1  0  0  0
  4 32  1  0  0  0
  4  9  1  0  0  0
  4  5  1  0  0  0
  5 14  1  0  0  0
  5  6  1  0  0  0
  5 34  1  0  0  0
  6  7  1  0  0  0
  6 35  1  0  0  0
  6 36  1  0  0  0
  7 13  1  0  0  0
  7  8  1  0  0  0
  7 37  1  0  0  0
  8  9  1  0  0  0
  8 38  1  0  0  0
  8 39  1  0  0  0
  9 10  1  0  0  0
  9 40  1  0  0  0
 10 11  1  0  0  0
 10 41  1  0  0  0
 10 42  1  0  0  0
 11 12  1  0  0  0
 11 13  1  0  0  0
 11 14  1  0  0  0
 12 43  1  0  0  0
 13 44  1  0  0  0
 13 45  1  0  0  0
 14 46  1  0  0  0
 14 47  1  0  0  0
 15 27  1  0  0  0
 15 16  2  0  0  0
 16 17  1  0  0  0
 16 48  1  0  0  0
 17 18  2  0  0  0
 18 19  1  0  0  0
 18 26  1  0  0  0
 19 20  1  0  0  0
 19 49  1  0  0  0
 20 25  1  0  0  0
 20 21  1  0  0  0
 20 50  1  0  0  0
 21 22  1  0  0  0
 21 51  1  0  0  0
 21 52  1  0  0  0
 22 23  1  0  0  0
 22 53  1  0  0  0
 22 54  1  0  0  0
 23 24  1  0  0  0
 24 25  1  0  0  0
 24 55  1  0  0  0
 24 56  1  0  0  0
 25 57  1  0  0  0
 25 58  1  0  0  0
 26 27  2  0  0  0
 27 28  1  0  0  0
 28 31  1  0  0  0
 28 29  1  0  0  0
 28 59  1  0  0  0
 29 30  1  0  0  0
 29 60  1  0  0  0
 29 61  1  0  0  0
 30 31  1  0  0  0
 30 62  1  0  0  0
 30 63  1  0  0  0
 31 64  1  0  0  0
 31 65  1  0  0  0
M  END
$$$$
311
                    3D
 Schrodinger Suite 2021-2.
 27 29  0  0  1  0            999 V2000
   -0.1235   -0.1812    0.0642 N   0  0  0  0  0  0
    1.2620   -0.2717   -0.1042 N   0  0  0  0  0  0
    2.0708   -0.1072    0.9633 C   0  0  0  0  0  0
    1.6600    0.1257    2.1027 O   0  0  0  0  0  0
    3.4723   -0.2388    0.5856 C   0  0  0  0  0  0
    4.4851   -0.1233    1.4721 C   0  0  0  0  0  0
    5.9386   -0.2249    1.2419 C   0  0  0  0  0  0
    6.6095   -0.4118    0.0594 C   0  0  0  0  0  0
    7.9661   -0.4496    0.3327 N   0  0  0  0  0  0
    8.2030   -0.2929    1.6858 C   0  0  0  0  0  0
    9.3903   -0.2631    2.4397 C   0  0  0  0  0  0
    9.3197   -0.0858    3.8334 C   0  0  0  0  0  0
    8.0665    0.0594    4.4592 C   0  0  0  0  0  0
    7.9713    0.2984    6.3445 Br  0  0  0  0  0  0
    6.8820    0.0283    3.6954 C   0  0  0  0  0  0
    6.9193   -0.1480    2.2909 C   0  0  0  0  0  0
    3.5360   -0.5618   -1.1438 S   0  0  0  0  0  0
    1.8125   -0.5187   -1.3192 C   0  0  0  0  0  0
    1.0477   -0.7517   -2.7850 S   0  0  0  0  0  0
    8.6677   -0.5770   -0.3825 H   0  0  0  0  0  0
   -0.3240    0.4663    0.8240 H   0  0  0  0  0  0
   -0.5390    0.1818   -0.7914 H   0  0  0  0  0  0
    4.2213    0.0781    2.5007 H   0  0  0  0  0  0
    6.2595   -0.5198   -0.9550 H   0  0  0  0  0  0
   10.3482   -0.3755    1.9537 H   0  0  0  0  0  0
   10.2253   -0.0618    4.4218 H   0  0  0  0  0  0
    5.9301    0.1410    4.1924 H   0  0  0  0  0  0
  1  2  1  0  0  0
  1 21  1  0  0  0
  1 22  1  0  0  0
  2 18  1  0  0  0
  2  3  1  0  0  0
  3  4  2  0  0  0
  3  5  1  0  0  0
  5  6  2  0  0  0
  5 17  1  0  0  0
  6  7  1  0  0  0
  6 23  1  0  0  0
  7 16  1  0  0  0
  7  8  2  0  0  0
  8  9  1  0  0  0
  8 24  1  0  0  0
  9 20  1  0  0  0
  9 10  1  0  0  0
 10 16  1  0  0  0
 10 11  2  0  0  0
 11 12  1  0  0  0
 11 25  1  0  0  0
 12 13  2  0  0  0
 12 26  1  0  0  0
 13 14  1  0  0  0
 13 15  1  0  0  0
 15 16  2  0  0  0
 15 27  1  0  0  0
 17 18  1  0  0  0
 18 19  2  0  0  0
M  END
$$$$
312
                    3D
 Schrodinger Suite 2021-2.
 50 52  0  0  1  0            999 V2000
   -5.1806   -6.1609    0.0204 C   0  0  0  0  0  0
   -4.3839   -4.8725    0.0249 C   0  0  0  0  0  0
   -3.9996   -4.2719    1.2409 C   0  0  0  0  0  0
   -3.2633   -3.0713    1.2336 C   0  0  0  0  0  0
   -2.9009   -2.4569    0.0157 C   0  0  0  0  0  0
   -2.1332   -1.1972    0.0079 C   0  0  0  0  0  0
   -0.7124   -1.2135   -0.0043 C   0  0  0  0  0  0
    0.0472   -2.5390   -0.0052 C   0  0  0  0  0  0
    0.2495   -3.0286    1.3683 N   0  3  0  0  0  0
   -0.0279    0.0291   -0.0062 C   0  0  0  0  0  0
    1.4938    0.1354   -0.0229 C   0  0  0  0  0  0
    2.1087    0.1075   -1.4405 C   0  0  0  0  0  0
    3.6387   -0.0017   -1.3646 C   0  0  0  0  0  0
    1.6939    1.3148   -2.2987 C   0  0  0  0  0  0
   -0.6663    1.2161    0.0005 N   0  0  0  0  0  0
   -2.0136    1.2506    0.0104 C   0  0  0  0  0  0
   -2.6740    2.4957    0.0186 C   0  0  0  0  0  0
   -4.0780    2.5766    0.0354 C   0  0  0  0  0  0
   -4.8594    1.4023    0.0438 C   0  0  0  0  0  0
   -6.3623    1.4819    0.0658 C   0  0  0  0  0  0
   -7.0236    0.4195    0.0727 O   0  0  0  0  0  0
   -6.9070    2.6082    0.0782 O   0  5  0  0  0  0
   -4.2053    0.1508    0.0326 C   0  0  0  0  0  0
   -2.7918    0.0618    0.0163 C   0  0  0  0  0  0
   -3.2913   -3.0638   -1.1971 C   0  0  0  0  0  0
   -4.0273   -4.2641   -1.1947 C   0  0  0  0  0  0
    0.7393   -3.9114    1.3435 H   0  0  0  0  0  0
    0.7919   -2.3562    1.8912 H   0  0  0  0  0  0
   -0.6487   -3.1553    1.8129 H   0  0  0  0  0  0
   -5.3887   -6.5056    1.0337 H   0  0  0  0  0  0
   -6.1324   -6.0138   -0.4906 H   0  0  0  0  0  0
   -4.6297   -6.9449   -0.4997 H   0  0  0  0  0  0
   -4.2713   -4.7252    2.1831 H   0  0  0  0  0  0
   -2.9793   -2.6150    2.1707 H   0  0  0  0  0  0
   -0.4903   -3.2958   -0.5755 H   0  0  0  0  0  0
    1.0146   -2.4474   -0.4954 H   0  0  0  0  0  0
    1.7914    1.0581    0.4787 H   0  0  0  0  0  0
    1.9159   -0.6610    0.5897 H   0  0  0  0  0  0
    1.7530   -0.7887   -1.9491 H   0  0  0  0  0  0
    4.0732    0.8702   -0.8744 H   0  0  0  0  0  0
    3.9443   -0.8859   -0.8045 H   0  0  0  0  0  0
    4.0781   -0.0770   -2.3597 H   0  0  0  0  0  0
    1.9819    2.2547   -1.8268 H   0  0  0  0  0  0
    2.1664    1.2777   -3.2806 H   0  0  0  0  0  0
    0.6169    1.3393   -2.4640 H   0  0  0  0  0  0
   -2.0961    3.4085    0.0136 H   0  0  0  0  0  0
   -4.5461    3.5503    0.0428 H   0  0  0  0  0  0
   -4.8045   -0.7476    0.0381 H   0  0  0  0  0  0
   -3.0269   -2.6034   -2.1379 H   0  0  0  0  0  0
   -4.3209   -4.7144   -2.1318 H   0  0  0  0  0  0
  1  2  1  0  0  0
  1 30  1  0  0  0
  1 31  1  0  0  0
  1 32  1  0  0  0
  2 26  1  0  0  0
  2  3  2  0  0  0
  3  4  1  0  0  0
  3 33  1  0  0  0
  4  5  2  0  0  0
  4 34  1  0  0  0
  5  6  1  0  0  0
  5 25  1  0  0  0
  6 24  1  0  0  0
  6  7  2  0  0  0
  7  8  1  0  0  0
  7 10  1  0  0  0
  8  9  1  0  0  0
  8 35  1  0  0  0
  8 36  1  0  0  0
  9 27  1  0  0  0
  9 28  1  0  0  0
  9 29  1  0  0  0
 10 11  1  0  0  0
 10 15  2  0  0  0
 11 12  1  0  0  0
 11 37  1  0  0  0
 11 38  1  0  0  0
 12 13  1  0  0  0
 12 14  1  0  0  0
 12 39  1  0  0  0
 13 40  1  0  0  0
 13 41  1  0  0  0
 13 42  1  0  0  0
 14 43  1  0  0  0
 14 44  1  0  0  0
 14 45  1  0  0  0
 15 16  1  0  0  0
 16 24  2  0  0  0
 16 17  1  0  0  0
 17 18  2  0  0  0
 17 46  1  0  0  0
 18 19  1  0  0  0
 18 47  1  0  0  0
 19 20  1  0  0  0
 19 23  2  0  0  0
 20 21  2  0  0  0
 20 22  1  0  0  0
 23 24  1  0  0  0
 23 48  1  0  0  0
 25 26  2  0  0  0
 25 49  1  0  0  0
 26 50  1  0  0  0
M  CHG  2   9   1  22  -1
M  END
$$$$
313
                    3D
 Schrodinger Suite 2021-2.
 49 51  0  0  1  0            999 V2000
   -7.0760    3.5076   -0.1715 C   0  0  0  0  0  0
   -6.5189    2.1456    0.2870 C   0  0  0  0  0  0
   -5.0109    2.0907    0.6667 C   0  0  0  0  0  0
   -4.7716    2.9282    1.9549 C   0  0  0  0  0  0
   -3.3048    3.0987    2.3922 C   0  0  0  0  0  0
   -4.6952    0.5928    0.9529 C   0  0  0  0  0  0
   -4.1589   -0.1569   -0.1707 N   0  0  0  0  0  0
   -2.7790    0.0364   -0.2513 C   0  0  0  0  0  0
   -1.9382   -1.0605    0.0335 C   0  0  0  0  0  0
   -0.5405   -0.9076    0.0327 C   0  0  0  0  0  0
    0.0161    0.3500   -0.2598 C   0  0  0  0  0  0
    1.7925    0.5460   -0.2463 S   0  0  0  0  0  0
    2.4249   -0.7225   -0.6407 O   0  0  0  0  0  0
    2.1567    1.8168   -0.8923 O   0  0  0  0  0  0
    2.1297    0.7499    1.4412 N   0  0  0  0  0  0
    3.3694    0.8934    2.0712 C   0  0  0  0  0  0
    4.5740    0.9121    1.3333 C   0  0  0  0  0  0
    5.8090    1.0537    1.9956 C   0  0  0  0  0  0
    5.8472    1.1766    3.3976 C   0  0  0  0  0  0
    7.0347    1.3110    4.0338 F   0  0  0  0  0  0
    4.6492    1.1599    4.1372 C   0  0  0  0  0  0
    3.4135    1.0191    3.4760 C   0  0  0  0  0  0
    2.2663    1.0029    4.1971 F   0  0  0  0  0  0
   -0.8129    1.4490   -0.5551 C   0  0  0  0  0  0
   -2.2199    1.3053   -0.5558 C   0  0  0  0  0  0
   -3.0628    2.4713   -1.0037 C   0  0  0  0  0  0
   -2.6274    3.2322   -1.8662 O   0  0  0  0  0  0
   -4.2734    2.6939   -0.4570 N   0  0  0  0  0  0
   -8.1305    3.4133   -0.4313 H   0  0  0  0  0  0
   -7.0076    4.2644    0.6088 H   0  0  0  0  0  0
   -6.5623    3.8849   -1.0557 H   0  0  0  0  0  0
   -7.1193    1.7979    1.1289 H   0  0  0  0  0  0
   -6.7038    1.4313   -0.5169 H   0  0  0  0  0  0
   -5.1793    3.9303    1.8286 H   0  0  0  0  0  0
   -5.3330    2.4861    2.7789 H   0  0  0  0  0  0
   -3.2506    3.6580    3.3264 H   0  0  0  0  0  0
   -2.8062    2.1446    2.5569 H   0  0  0  0  0  0
   -2.7270    3.6545    1.6542 H   0  0  0  0  0  0
   -3.9969    0.5004    1.7849 H   0  0  0  0  0  0
   -5.5897    0.0758    1.3016 H   0  0  0  0  0  0
   -4.4315   -1.1292   -0.1552 H   0  0  0  0  0  0
   -2.3647   -2.0241    0.2721 H   0  0  0  0  0  0
    0.0957   -1.7497    0.2621 H   0  0  0  0  0  0
    1.3305    0.7541    2.0585 H   0  0  0  0  0  0
    4.5645    0.8182    0.2576 H   0  0  0  0  0  0
    6.7273    1.0666    1.4272 H   0  0  0  0  0  0
    4.6779    1.2544    5.2126 H   0  0  0  0  0  0
   -0.3662    2.4031   -0.7948 H   0  0  0  0  0  0
   -4.7556    3.4835   -0.8611 H   0  0  0  0  0  0
  1  2  1  0  0  0
  1 29  1  0  0  0
  1 30  1  0  0  0
  1 31  1  0  0  0
  2  3  1  0  0  0
  2 32  1  0  0  0
  2 33  1  0  0  0
  3 28  1  0  0  0
  3  4  1  0  0  0
  3  6  1  0  0  0
  4  5  1  0  0  0
  4 34  1  0  0  0
  4 35  1  0  0  0
  5 36  1  0  0  0
  5 37  1  0  0  0
  5 38  1  0  0  0
  6  7  1  0  0  0
  6 39  1  0  0  0
  6 40  1  0  0  0
  7  8  1  0  0  0
  7 41  1  0  0  0
  8 25  2  0  0  0
  8  9  1  0  0  0
  9 10  2  0  0  0
  9 42  1  0  0  0
 10 11  1  0  0  0
 10 43  1  0  0  0
 11 12  1  0  0  0
 11 24  2  0  0  0
 12 13  2  0  0  0
 12 14  2  0  0  0
 12 15  1  0  0  0
 15 16  1  0  0  0
 15 44  1  0  0  0
 16 22  1  0  0  0
 16 17  2  0  0  0
 17 18  1  0  0  0
 17 45  1  0  0  0
 18 19  2  0  0  0
 18 46  1  0  0  0
 19 20  1  0  0  0
 19 21  1  0  0  0
 21 22  2  0  0  0
 21 47  1  0  0  0
 22 23  1  0  0  0
 24 25  1  0  0  0
 24 48  1  0  0  0
 25 26  1  0  0  0
 26 27  2  0  0  0
 26 28  1  0  0  0
 28 49  1  0  0  0
M  END
$$$$
314
                    3D
 Schrodinger Suite 2021-2.
 54 57  0  0  1  0            999 V2000
   -0.5213   -1.6188   -0.3061 C   0  0  0  0  0  0
    0.0275   -0.1935   -0.2682 C   0  0  0  0  0  0
   -0.7345    0.7594   -0.4298 O   0  0  0  0  0  0
    1.5448    0.0064   -0.0318 C   0  0  1  0  0  0
    2.2295   -1.1127   -0.5860 O   0  0  0  0  0  0
    2.1286    1.3089   -0.6717 C   0  0  2  0  0  0
    2.5184    1.1581   -2.0249 O   0  0  0  0  0  0
    3.3022    1.7639    0.2264 C   0  0  0  0  0  0
    3.3924    0.6930    1.3208 C   0  0  1  0  0  0
    4.0965    1.0224    2.6572 C   0  0  2  0  0  0
    5.5162    1.5778    2.4100 C   0  0  0  0  0  0
    6.2925    1.8076    3.7113 C   0  0  0  0  0  0
    6.3138    0.5442    4.5552 C   0  0  0  0  0  0
    7.4808   -0.0348    4.9058 C   0  0  0  0  0  0
    7.5242   -1.2912    5.6687 C   0  0  0  0  0  0
    8.5933   -1.8027    5.9944 O   0  0  0  0  0  0
    6.2428   -1.9146    6.0221 C   0  0  0  0  0  0
    5.0788   -1.3386    5.6749 C   0  0  0  0  0  0
    4.9252   -0.0219    4.9079 C   0  0  1  0  0  0
    4.2401    0.9793    5.8719 C   0  0  0  0  0  0
    4.1352   -0.2573    3.5626 C   0  0  2  0  0  0
    4.8763   -1.1503    2.8951 F   0  0  0  0  0  0
    2.7418   -0.9725    3.6788 C   0  0  1  0  0  0
    1.8694   -0.3735    4.6135 O   0  0  0  0  0  0
    2.0010   -1.1336    2.3231 C   0  0  0  0  0  0
    1.9515    0.1690    1.4763 C   0  0  2  0  0  0
    1.0169    1.2119    2.1723 C   0  0  0  0  0  0
    1.3875    2.1088   -0.6658 H   0  0  0  0  0  0
    3.9922   -0.1025    0.8756 H   0  0  0  0  0  0
    3.5392    1.8064    3.1650 H   0  0  0  0  0  0
    2.9039   -1.9795    4.0636 H   0  0  0  0  0  0
   -0.0405   -2.2384    0.4503 H   0  0  0  0  0  0
   -1.5949   -1.6187   -0.1168 H   0  0  0  0  0  0
   -0.3432   -2.0654   -1.2843 H   0  0  0  0  0  0
    3.1585   -0.9716   -0.4856 H   0  0  0  0  0  0
    1.7624    0.8925   -2.5260 H   0  0  0  0  0  0
    4.2416    1.8501   -0.3216 H   0  0  0  0  0  0
    3.0871    2.7411    0.6603 H   0  0  0  0  0  0
    6.0784    0.8886    1.7783 H   0  0  0  0  0  0
    5.4605    2.5171    1.8592 H   0  0  0  0  0  0
    7.3094    2.1275    3.4807 H   0  0  0  0  0  0
    5.8406    2.6187    4.2818 H   0  0  0  0  0  0
    8.4228    0.4055    4.6130 H   0  0  0  0  0  0
    6.2560   -2.8440    6.5725 H   0  0  0  0  0  0
    4.1633   -1.8287    5.9712 H   0  0  0  0  0  0
    4.9267    1.2798    6.6646 H   0  0  0  0  0  0
    3.9098    1.8902    5.3751 H   0  0  0  0  0  0
    3.3755    0.5510    6.3764 H   0  0  0  0  0  0
    2.3019   -0.3468    5.4533 H   0  0  0  0  0  0
    2.5248   -1.9130    1.7703 H   0  0  0  0  0  0
    0.9954   -1.5230    2.4859 H   0  0  0  0  0  0
    1.3929    1.5686    3.1271 H   0  0  0  0  0  0
    0.8567    2.1058    1.5715 H   0  0  0  0  0  0
    0.0336    0.7859    2.3733 H   0  0  0  0  0  0
  1  2  1  0  0  0
  1 32  1  0  0  0
  1 33  1  0  0  0
  1 34  1  0  0  0
  2  3  2  0  0  0
  2  4  1  0  0  0
  4 26  1  0  0  0
  4  5  1  0  0  0
  4  6  1  0  0  0
  5 35  1  0  0  0
  6 28  1  0  0  0
  6  7  1  0  0  0
  6  8  1  0  0  0
  7 36  1  0  0  0
  8  9  1  0  0  0
  8 37  1  0  0  0
  8 38  1  0  0  0
  9 29  1  0  0  0
  9 26  1  0  0  0
  9 10  1  0  0  0
 10 30  1  0  0  0
 10 21  1  0  0  0
 10 11  1  0  0  0
 11 12  1  0  0  0
 11 39  1  0  0  0
 11 40  1  0  0  0
 12 13  1  0  0  0
 12 41  1  0  0  0
 12 42  1  0  0  0
 13 19  1  0  0  0
 13 14  2  0  0  0
 14 15  1  0  0  0
 14 43  1  0  0  0
 15 16  2  0  0  0
 15 17  1  0  0  0
 17 18  2  0  0  0
 17 44  1  0  0  0
 18 19  1  0  0  0
 18 45  1  0  0  0
 19 20  1  0  0  0
 19 21  1  0  0  0
 20 46  1  0  0  0
 20 47  1  0  0  0
 20 48  1  0  0  0
 21 22  1  0  0  0
 21 23  1  0  0  0
 23 31  1  0  0  0
 23 24  1  0  0  0
 23 25  1  0  0  0
 24 49  1  0  0  0
 25 26  1  0  0  0
 25 50  1  0  0  0
 25 51  1  0  0  0
 26 27  1  0  0  0
 27 52  1  0  0  0
 27 53  1  0  0  0
 27 54  1  0  0  0
M  END
$$$$
315
                    3D
 Schrodinger Suite 2021-2.
 68 72  0  0  1  0            999 V2000
   -3.8665    2.6728   -4.5694 O   0  0  0  0  0  0
   -3.5907    2.0334   -3.5566 C   0  0  0  0  0  0
   -4.5794    1.5061   -2.6918 N   0  0  0  0  0  0
   -3.9788    0.8675   -1.6824 C   0  0  0  0  0  0
   -4.6240    0.2527   -0.6710 N   0  3  0  0  0  0
   -6.0821    0.2066   -0.4883 C   0  0  0  0  0  0
   -6.6086    1.5100    0.1442 C   0  0  0  0  0  0
   -6.2530    1.6224    1.6364 C   0  0  0  0  0  0
   -6.7278    0.3885    2.4180 C   0  0  0  0  0  0
   -6.1475   -0.9009    1.8181 C   0  0  0  0  0  0
   -6.4986   -1.0340    0.3255 C   0  0  0  0  0  0
   -2.4883    0.9318   -1.8246 C   0  0  2  0  0  0
   -1.9379   -0.5103   -1.9341 C   0  0  0  0  0  0
   -0.4128   -0.6069   -1.7347 C   0  0  0  0  0  0
    0.0146    0.0411   -0.4672 N   0  3  1  0  0  0
    1.4603   -0.1414   -0.1790 C   0  0  0  0  0  0
    1.7904   -1.5569    0.3254 C   0  0  0  0  0  0
    3.2601   -1.7056    0.6686 C   0  0  0  0  0  0
    4.1904   -2.0471   -0.3359 C   0  0  0  0  0  0
    5.5564   -2.1801   -0.0191 C   0  0  0  0  0  0
    5.9970   -1.9725    1.3023 C   0  0  0  0  0  0
    5.0713   -1.6302    2.3069 C   0  0  0  0  0  0
    3.7052   -1.4964    1.9911 C   0  0  0  0  0  0
   -0.3797    1.4719   -0.4330 C   0  0  0  0  0  0
   -1.9031    1.6457   -0.5829 C   0  0  0  0  0  0
   -2.3784    1.7125   -3.0715 N   0  0  0  0  0  0
   -1.1724    2.0753   -3.7183 C   0  0  0  0  0  0
   -0.5454    3.3012   -3.4093 C   0  0  0  0  0  0
    0.6491    3.6644   -4.0607 C   0  0  0  0  0  0
    1.2106    2.8113   -5.0307 C   0  0  0  0  0  0
    0.5735    1.5983   -5.3569 C   0  0  0  0  0  0
   -0.6206    1.2325   -4.7065 C   0  0  0  0  0  0
   -4.0716   -0.1328    0.0817 H   0  0  0  0  0  0
   -0.4848   -0.4105    0.2857 H   0  0  0  0  0  0
   -5.5834    1.5755   -2.7778 H   0  0  0  0  0  0
   -6.5155    0.1075   -1.4837 H   0  0  0  0  0  0
   -6.2147    2.3752   -0.3904 H   0  0  0  0  0  0
   -7.6921    1.5516    0.0257 H   0  0  0  0  0  0
   -5.1743    1.7356    1.7516 H   0  0  0  0  0  0
   -6.7027    2.5225    2.0566 H   0  0  0  0  0  0
   -6.4353    0.4762    3.4648 H   0  0  0  0  0  0
   -7.8174    0.3420    2.4045 H   0  0  0  0  0  0
   -5.0643   -0.9055    1.9439 H   0  0  0  0  0  0
   -6.5233   -1.7656    2.3655 H   0  0  0  0  0  0
   -7.5732   -1.1871    0.2186 H   0  0  0  0  0  0
   -6.0256   -1.9279   -0.0831 H   0  0  0  0  0  0
   -2.4085   -1.1305   -1.1711 H   0  0  0  0  0  0
   -2.2222   -0.9516   -2.8900 H   0  0  0  0  0  0
   -0.1352   -1.6601   -1.7310 H   0  0  0  0  0  0
    0.1242   -0.1559   -2.5670 H   0  0  0  0  0  0
    2.0482    0.1025   -1.0655 H   0  0  0  0  0  0
    1.7634    0.5664    0.5943 H   0  0  0  0  0  0
    1.1917   -1.7889    1.2072 H   0  0  0  0  0  0
    1.5406   -2.3098   -0.4218 H   0  0  0  0  0  0
    3.8604   -2.2072   -1.3519 H   0  0  0  0  0  0
    6.2666   -2.4415   -0.7897 H   0  0  0  0  0  0
    7.0444   -2.0757    1.5448 H   0  0  0  0  0  0
    5.4097   -1.4704    3.3201 H   0  0  0  0  0  0
    3.0020   -1.2325    2.7677 H   0  0  0  0  0  0
   -0.0722    1.9124    0.5164 H   0  0  0  0  0  0
    0.1613    2.0110   -1.2081 H   0  0  0  0  0  0
   -2.1629    2.7048   -0.5986 H   0  0  0  0  0  0
   -2.3689    1.2400    0.3151 H   0  0  0  0  0  0
   -0.9734    3.9615   -2.6690 H   0  0  0  0  0  0
    1.1337    4.5989   -3.8191 H   0  0  0  0  0  0
    2.1267    3.0910   -5.5302 H   0  0  0  0  0  0
    0.9996    0.9500   -6.1086 H   0  0  0  0  0  0
   -1.1071    0.3027   -4.9634 H   0  0  0  0  0  0
  1  2  2  0  0  0
  2 26  1  0  0  0
  2  3  1  0  0  0
  3  4  1  0  0  0
  3 35  1  0  0  0
  4  5  2  0  0  0
  4 12  1  0  0  0
  5 33  1  0  0  0
  5  6  1  0  0  0
  6 11  1  0  0  0
  6  7  1  0  0  0
  6 36  1  0  0  0
  7  8  1  0  0  0
  7 37  1  0  0  0
  7 38  1  0  0  0
  8  9  1  0  0  0
  8 39  1  0  0  0
  8 40  1  0  0  0
  9 10  1  0  0  0
  9 41  1  0  0  0
  9 42  1  0  0  0
 10 11  1  0  0  0
 10 43  1  0  0  0
 10 44  1  0  0  0
 11 45  1  0  0  0
 11 46  1  0  0  0
 12 25  1  0  0  0
 12 13  1  0  0  0
 12 26  1  0  0  0
 13 14  1  0  0  0
 13 47  1  0  0  0
 13 48  1  0  0  0
 14 15  1  0  0  0
 14 49  1  0  0  0
 14 50  1  0  0  0
 15 34  1  0  0  0
 15 16  1  0  0  0
 15 24  1  0  0  0
 16 17  1  0  0  0
 16 51  1  0  0  0
 16 52  1  0  0  0
 17 18  1  0  0  0
 17 53  1  0  0  0
 17 54  1  0  0  0
 18 23  1  0  0  0
 18 19  2  0  0  0
 19 20  1  0  0  0
 19 55  1  0  0  0
 20 21  2  0  0  0
 20 56  1  0  0  0
 21 22  1  0  0  0
 21 57  1  0  0  0
 22 23  2  0  0  0
 22 58  1  0  0  0
 23 59  1  0  0  0
 24 25  1  0  0  0
 24 60  1  0  0  0
 24 61  1  0  0  0
 25 62  1  0  0  0
 25 63  1  0  0  0
 26 27  1  0  0  0
 27 32  1  0  0  0
 27 28  2  0  0  0
 28 29  1  0  0  0
 28 64  1  0  0  0
 29 30  2  0  0  0
 29 65  1  0  0  0
 30 31  1  0  0  0
 30 66  1  0  0  0
 31 32  2  0  0  0
 31 67  1  0  0  0
 32 68  1  0  0  0
M  CHG  2   5   1  15   1
M  END
$$$$
316
                    3D
 Schrodinger Suite 2021-2.
 62 65  0  0  1  0            999 V2000
   -4.0617    1.7622    1.0025 C   0  0  0  0  0  0
   -3.5646    1.3950   -0.4050 C   0  0  0  0  0  0
   -4.6430    0.6601   -1.2128 C   0  0  0  0  0  0
   -2.3675    0.5630   -0.3228 N   0  0  0  0  0  0
   -1.1156    1.0179   -0.1689 C   0  0  0  0  0  0
   -0.8196    2.2096   -0.0784 O   0  0  0  0  0  0
   -0.2263    0.0159   -0.1253 N   0  0  0  0  0  0
    1.2161    0.1731    0.0357 C   0  0  1  0  0  0
    1.8006   -1.0962    0.6848 C   0  0  0  0  0  0
    3.3284   -1.0088    0.8243 C   0  0  0  0  0  0
    3.9893   -0.7269   -0.5403 C   0  0  2  0  0  0
    5.4499   -0.7413   -0.4891 N   0  0  0  0  0  0
    6.2912    0.1199    0.1976 C   0  0  0  0  0  0
    5.7637    1.1012    0.9335 N   0  0  0  0  0  0
    6.6279    1.9077    1.5810 C   0  0  0  0  0  0
    8.0216    1.7273    1.4752 C   0  0  0  0  0  0
    8.9821    2.5377    2.1987 C   0  0  0  0  0  0
   10.2860    2.2258    2.1712 C   0  0  0  0  0  0
   10.8018    1.0841    1.4142 C   0  0  0  0  0  0
   11.9499    0.6915    1.6139 O   0  0  0  0  0  0
    9.9300    0.4808    0.5356 N   0  0  0  0  0  0
   10.3697   -0.4912   -0.5173 C   0  0  0  0  0  0
   11.8825   -0.7086   -0.7702 C   0  0  0  0  0  0
   11.9755   -1.2376   -2.1958 C   0  0  0  0  0  0
   10.9558   -0.3902   -2.9442 C   0  0  0  0  0  0
    9.8362   -0.1256   -1.9302 C   0  0  0  0  0  0
    8.4988    0.6726    0.6625 C   0  0  0  0  0  0
    7.5934   -0.1290    0.0439 N   0  0  0  0  0  0
    3.4136    0.5435   -1.1990 C   0  0  0  0  0  0
    1.8846    0.4522   -1.3266 C   0  0  0  0  0  0
    1.4112    1.0146    0.7035 H   0  0  0  0  0  0
    3.7322   -1.5624   -1.1925 H   0  0  0  0  0  0
   -4.9523    2.3891    0.9513 H   0  0  0  0  0  0
   -4.3144    0.8721    1.5797 H   0  0  0  0  0  0
   -3.3044    2.3161    1.5584 H   0  0  0  0  0  0
   -3.3209    2.3162   -0.9378 H   0  0  0  0  0  0
   -5.5401    1.2715   -1.3149 H   0  0  0  0  0  0
   -4.2901    0.4251   -2.2177 H   0  0  0  0  0  0
   -4.9317   -0.2758   -0.7326 H   0  0  0  0  0  0
   -2.5042   -0.4350   -0.3882 H   0  0  0  0  0  0
   -0.5721   -0.9287   -0.2098 H   0  0  0  0  0  0
    1.3527   -1.2543    1.6667 H   0  0  0  0  0  0
    1.5440   -1.9704    0.0845 H   0  0  0  0  0  0
    3.5719   -0.2267    1.5429 H   0  0  0  0  0  0
    3.7112   -1.9414    1.2403 H   0  0  0  0  0  0
    5.9066   -1.4619   -1.0293 H   0  0  0  0  0  0
    6.2045    2.6900    2.1936 H   0  0  0  0  0  0
    8.6229    3.3878    2.7604 H   0  0  0  0  0  0
   10.9814    2.8384    2.7264 H   0  0  0  0  0  0
    9.9600   -1.4655   -0.2452 H   0  0  0  0  0  0
   12.4276    0.2360   -0.7518 H   0  0  0  0  0  0
   12.3408   -1.3847   -0.0475 H   0  0  0  0  0  0
   12.9793   -1.1536   -2.6131 H   0  0  0  0  0  0
   11.6843   -2.2886   -2.2233 H   0  0  0  0  0  0
   11.4129    0.5551   -3.2403 H   0  0  0  0  0  0
   10.5936   -0.8788   -3.8492 H   0  0  0  0  0  0
    8.9657   -0.7350   -2.1752 H   0  0  0  0  0  0
    9.5255    0.9184   -1.9933 H   0  0  0  0  0  0
    3.6646    1.4305   -0.6179 H   0  0  0  0  0  0
    3.8542    0.6857   -2.1864 H   0  0  0  0  0  0
    1.6288   -0.3397   -2.0319 H   0  0  0  0  0  0
    1.4996    1.3797   -1.7523 H   0  0  0  0  0  0
  1  2  1  0  0  0
  1 33  1  0  0  0
  1 34  1  0  0  0
  1 35  1  0  0  0
  2  3  1  0  0  0
  2  4  1  0  0  0
  2 36  1  0  0  0
  3 37  1  0  0  0
  3 38  1  0  0  0
  3 39  1  0  0  0
  4  5  1  0  0  0
  4 40  1  0  0  0
  5  6  2  0  0  0
  5  7  1  0  0  0
  7  8  1  0  0  0
  7 41  1  0  0  0
  8 31  1  0  0  0
  8 30  1  0  0  0
  8  9  1  0  0  0
  9 10  1  0  0  0
  9 42  1  0  0  0
  9 43  1  0  0  0
 10 11  1  0  0  0
 10 44  1  0  0  0
 10 45  1  0  0  0
 11 32  1  0  0  0
 11 12  1  0  0  0
 11 29  1  0  0  0
 12 13  1  0  0  0
 12 46  1  0  0  0
 13 28  1  0  0  0
 13 14  2  0  0  0
 14 15  1  0  0  0
 15 16  2  0  0  0
 15 47  1  0  0  0
 16 27  1  0  0  0
 16 17  1  0  0  0
 17 18  2  0  0  0
 17 48  1  0  0  0
 18 19  1  0  0  0
 18 49  1  0  0  0
 19 20  2  0  0  0
 19 21  1  0  0  0
 21 22  1  0  0  0
 21 27  1  0  0  0
 22 26  1  0  0  0
 22 23  1  0  0  0
 22 50  1  0  0  0
 23 24  1  0  0  0
 23 51  1  0  0  0
 23 52  1  0  0  0
 24 25  1  0  0  0
 24 53  1  0  0  0
 24 54  1  0  0  0
 25 26  1  0  0  0
 25 55  1  0  0  0
 25 56  1  0  0  0
 26 57  1  0  0  0
 26 58  1  0  0  0
 27 28  2  0  0  0
 29 30  1  0  0  0
 29 59  1  0  0  0
 29 60  1  0  0  0
 30 61  1  0  0  0
 30 62  1  0  0  0
M  END
$$$$
317
                    3D
 Schrodinger Suite 2021-2.
 51 53  0  0  1  0            999 V2000
   -7.1465   -0.3466   -0.0925 C   0  0  0  0  0  0
   -6.4198    0.8734   -0.1022 O   0  0  0  0  0  0
   -5.0434    0.8087   -0.0640 C   0  0  0  0  0  0
   -4.3417    2.0294   -0.1033 C   0  0  0  0  0  0
   -2.9345    2.0535   -0.0692 C   0  0  0  0  0  0
   -2.1937    0.8556    0.0061 C   0  0  0  0  0  0
   -0.7218    0.9365    0.0394 C   0  0  0  0  0  0
    0.1367   -0.1028    0.0896 C   0  0  0  0  0  0
    1.5743    0.1179    0.1239 C   0  0  0  0  0  0
    2.1098    1.2282    0.1082 O   0  0  0  0  0  0
    2.2244   -1.0680    0.1776 N   0  0  0  0  0  0
    3.5554   -1.3617    0.2396 C   0  0  0  0  0  0
    4.8753   -0.3212    0.2713 S   0  0  0  0  0  0
    3.6625   -2.7123    0.2774 N   0  0  0  0  0  0
    4.8559   -3.4516    0.3457 N   0  0  0  0  0  0
    4.9668   -4.6485   -0.2475 C   0  0  0  0  0  0
    4.0376   -5.2162   -0.8226 O   0  0  0  0  0  0
    6.3130   -5.3004   -0.1222 C   0  0  0  0  0  0
    7.5284   -4.6744   -0.1427 C   0  0  0  0  0  0
    7.9780   -3.2533   -0.2392 C   0  0  0  0  0  0
    8.5012   -5.6199   -0.0719 O   0  0  0  0  0  0
    7.9028   -6.8879   -0.0227 N   0  0  0  0  0  0
    6.5901   -6.6978   -0.0576 C   0  0  0  0  0  0
    5.6923   -7.8567   -0.0107 C   0  0  0  0  0  0
    5.9378   -8.9837   -0.8265 C   0  0  0  0  0  0
    5.0736  -10.0953   -0.7866 C   0  0  0  0  0  0
    3.9581  -10.0902    0.0718 C   0  0  0  0  0  0
    3.7087   -8.9732    0.8914 C   0  0  0  0  0  0
    4.5733   -7.8622    0.8508 C   0  0  0  0  0  0
   -2.8950   -0.3713    0.0453 C   0  0  0  0  0  0
   -4.3030   -0.3966    0.0112 C   0  0  0  0  0  0
   -8.2136   -0.1296   -0.1401 H   0  0  0  0  0  0
   -6.8975   -0.9655   -0.9556 H   0  0  0  0  0  0
   -6.9656   -0.9120    0.8228 H   0  0  0  0  0  0
   -4.8883    2.9594   -0.1609 H   0  0  0  0  0  0
   -2.4243    3.0053   -0.1017 H   0  0  0  0  0  0
   -0.3230    1.9417    0.0229 H   0  0  0  0  0  0
   -0.2378   -1.1153    0.1057 H   0  0  0  0  0  0
    1.6157   -1.8731    0.1755 H   0  0  0  0  0  0
    2.8585   -3.3228    0.2470 H   0  0  0  0  0  0
    5.5896   -2.9549    0.8309 H   0  0  0  0  0  0
    7.5015   -2.7535   -1.0827 H   0  0  0  0  0  0
    7.7233   -2.7047    0.6677 H   0  0  0  0  0  0
    9.0576   -3.1904   -0.3777 H   0  0  0  0  0  0
    6.7891   -8.9981   -1.4916 H   0  0  0  0  0  0
    5.2665  -10.9518   -1.4159 H   0  0  0  0  0  0
    3.2951  -10.9423    0.1023 H   0  0  0  0  0  0
    2.8543   -8.9681    1.5521 H   0  0  0  0  0  0
    4.3746   -7.0125    1.4875 H   0  0  0  0  0  0
   -2.3701   -1.3119    0.1040 H   0  0  0  0  0  0
   -4.7930   -1.3577    0.0450 H   0  0  0  0  0  0
  1  2  1  0  0  0
  1 32  1  0  0  0
  1 33  1  0  0  0
  1 34  1  0  0  0
  2  3  1  0  0  0
  3 31  1  0  0  0
  3  4  2  0  0  0
  4  5  1  0  0  0
  4 35  1  0  0  0
  5  6  2  0  0  0
  5 36  1  0  0  0
  6  7  1  0  0  0
  6 30  1  0  0  0
  7  8  2  0  0  0
  7 37  1  0  0  0
  8  9  1  0  0  0
  8 38  1  0  0  0
  9 10  2  0  0  0
  9 11  1  0  0  0
 11 12  1  0  0  0
 11 39  1  0  0  0
 12 13  2  0  0  0
 12 14  1  0  0  0
 14 15  1  0  0  0
 14 40  1  0  0  0
 15 16  1  0  0  0
 15 41  1  0  0  0
 16 17  2  0  0  0
 16 18  1  0  0  0
 18 23  1  0  0  0
 18 19  2  0  0  0
 19 20  1  0  0  0
 19 21  1  0  0  0
 20 42  1  0  0  0
 20 43  1  0  0  0
 20 44  1  0  0  0
 21 22  1  0  0  0
 22 23  2  0  0  0
 23 24  1  0  0  0
 24 29  1  0  0  0
 24 25  2  0  0  0
 25 26  1  0  0  0
 25 45  1  0  0  0
 26 27  2  0  0  0
 26 46  1  0  0  0
 27 28  1  0  0  0
 27 47  1  0  0  0
 28 29  2  0  0  0
 28 48  1  0  0  0
 29 49  1  0  0  0
 30 31  2  0  0  0
 30 50  1  0  0  0
 31 51  1  0  0  0
M  END
$$$$
318
                    3D
 Schrodinger Suite 2021-2.
 55 56  0  0  1  0            999 V2000
   -0.3371    0.7114    2.4167 C   0  0  0  0  0  0
   -0.7780    1.2561    1.0460 C   0  0  0  0  0  0
   -2.3113    1.2160    0.9290 C   0  0  0  0  0  0
   -0.3994    2.6168    0.9743 O   0  0  0  0  0  0
   -0.1334    0.4947   -0.1361 C   0  0  0  0  0  0
    1.4087    0.5036   -0.1696 C   0  0  0  0  0  0
    1.9115   -0.2151   -1.3394 N   0  0  0  0  0  0
    2.1717    0.3145   -2.5557 C   0  0  0  0  0  0
    2.0091    1.5063   -2.8297 O   0  0  0  0  0  0
    2.5968   -0.6877   -3.3923 N   0  0  0  0  0  0
    2.9790   -0.5913   -4.7027 C   0  0  0  0  0  0
    3.1234   -1.5721   -5.4327 O   0  0  0  0  0  0
    3.1751    0.6558   -5.1765 N   0  0  0  0  0  0
    3.5033    1.0439   -6.5515 C   0  0  2  0  0  0
    4.6964    2.0181   -6.5140 C   0  0  0  0  0  0
    5.6340    1.8716   -7.4543 N   0  0  0  0  0  0
    4.7722    2.8949   -5.6542 O   0  0  0  0  0  0
    2.2307    1.5561   -7.3138 C   0  0  0  0  0  0
    1.1579    0.4465   -7.3817 C   0  0  0  0  0  0
    2.5850    1.9287   -8.7712 C   0  0  0  0  0  0
    1.6135    2.7986   -6.6316 C   0  0  0  0  0  0
    2.5834   -1.8968   -2.6445 C   0  0  0  0  0  0
    2.9262   -3.2248   -2.9832 C   0  0  0  0  0  0
    2.7993   -4.2193   -1.9862 C   0  0  0  0  0  0
    2.3427   -3.8903   -0.6865 C   0  0  0  0  0  0
    2.0102   -2.5575   -0.3595 C   0  0  0  0  0  0
    2.1496   -1.5892   -1.3697 C   0  0  0  0  0  0
    3.8616    0.1587   -7.0811 H   0  0  0  0  0  0
   -0.5673   -0.3503    2.5113 H   0  0  0  0  0  0
    0.7331    0.8360    2.5806 H   0  0  0  0  0  0
   -0.8460    1.2310    3.2294 H   0  0  0  0  0  0
   -2.6825    0.1918    0.9786 H   0  0  0  0  0  0
   -2.7884    1.7767    1.7341 H   0  0  0  0  0  0
   -2.6516    1.6430   -0.0151 H   0  0  0  0  0  0
   -0.6718    2.9609    0.1372 H   0  0  0  0  0  0
   -0.4774   -0.5406   -0.1182 H   0  0  0  0  0  0
   -0.5056    0.9135   -1.0725 H   0  0  0  0  0  0
    1.7843    1.5277   -0.1808 H   0  0  0  0  0  0
    1.8198    0.0451    0.7290 H   0  0  0  0  0  0
    3.0482    1.4188   -4.5264 H   0  0  0  0  0  0
    5.5423    1.1445   -8.1487 H   0  0  0  0  0  0
    6.4319    2.4901   -7.4672 H   0  0  0  0  0  0
    0.7667    0.1954   -6.3957 H   0  0  0  0  0  0
    0.3049    0.7539   -7.9878 H   0  0  0  0  0  0
    1.5586   -0.4674   -7.8216 H   0  0  0  0  0  0
    3.2683    2.7765   -8.8242 H   0  0  0  0  0  0
    3.0531    1.0927   -9.2923 H   0  0  0  0  0  0
    1.6953    2.2079   -9.3370 H   0  0  0  0  0  0
    2.3063    3.6399   -6.6113 H   0  0  0  0  0  0
    0.7202    3.1336   -7.1597 H   0  0  0  0  0  0
    1.3182    2.5907   -5.6026 H   0  0  0  0  0  0
    3.2793   -3.5013   -3.9640 H   0  0  0  0  0  0
    3.0545   -5.2427   -2.2187 H   0  0  0  0  0  0
    2.2513   -4.6641    0.0614 H   0  0  0  0  0  0
    1.6644   -2.2989    0.6303 H   0  0  0  0  0  0
  1  2  1  0  0  0
  1 29  1  0  0  0
  1 30  1  0  0  0
  1 31  1  0  0  0
  2  3  1  0  0  0
  2  4  1  0  0  0
  2  5  1  0  0  0
  3 32  1  0  0  0
  3 33  1  0  0  0
  3 34  1  0  0  0
  4 35  1  0  0  0
  5  6  1  0  0  0
  5 36  1  0  0  0
  5 37  1  0  0  0
  6  7  1  0  0  0
  6 38  1  0  0  0
  6 39  1  0  0  0
  7 27  1  0  0  0
  7  8  1  0  0  0
  8  9  2  0  0  0
  8 10  1  0  0  0
 10 11  1  0  0  0
 10 22  1  0  0  0
 11 12  2  0  0  0
 11 13  1  0  0  0
 13 14  1  0  0  0
 13 40  1  0  0  0
 14 28  1  0  0  0
 14 15  1  0  0  0
 14 18  1  0  0  0
 15 16  1  0  0  0
 15 17  2  0  0  0
 16 41  1  0  0  0
 16 42  1  0  0  0
 18 19  1  0  0  0
 18 20  1  0  0  0
 18 21  1  0  0  0
 19 43  1  0  0  0
 19 44  1  0  0  0
 19 45  1  0  0  0
 20 46  1  0  0  0
 20 47  1  0  0  0
 20 48  1  0  0  0
 21 49  1  0  0  0
 21 50  1  0  0  0
 21 51  1  0  0  0
 22 27  2  0  0  0
 22 23  1  0  0  0
 23 24  2  0  0  0
 23 52  1  0  0  0
 24 25  1  0  0  0
 24 53  1  0  0  0
 25 26  2  0  0  0
 25 54  1  0  0  0
 26 27  1  0  0  0
 26 55  1  0  0  0
M  END
$$$$
319
                    3D
 Schrodinger Suite 2021-2.
 51 54  0  0  1  0            999 V2000
   -4.9119   -1.1506    0.4791 C   0  0  0  0  0  0
   -4.1923    0.0102    0.0900 O   0  0  0  0  0  0
   -2.8127   -0.0438    0.0954 C   0  0  0  0  0  0
   -2.0734   -1.1963    0.4615 C   0  0  0  0  0  0
   -0.6663   -1.1794    0.4439 C   0  0  0  0  0  0
    0.0360   -0.0214    0.0530 C   0  0  0  0  0  0
    1.4938   -0.0082    0.0366 C   0  0  0  0  0  0
    2.2093    0.9977    0.6583 N   0  0  0  0  0  0
    3.5513    0.8251    0.6052 N   0  0  0  0  0  0
    3.6862   -0.3065   -0.0688 C   0  0  0  0  0  0
    2.4461   -0.8526   -0.4650 C   0  0  0  0  0  0
    2.3909   -2.0988   -1.2463 C   0  0  0  0  0  0
    1.2377   -2.5068   -1.9452 C   0  0  0  0  0  0
    1.2215   -3.7042   -2.6983 C   0  0  0  0  0  0
    0.1177   -4.1503   -3.3965 O   0  0  0  0  0  0
   -1.0906   -3.4102   -3.2938 C   0  0  0  0  0  0
    2.3888   -4.4944   -2.7694 C   0  0  0  0  0  0
    2.3164   -5.6381   -3.5347 O   0  0  0  0  0  0
    3.4208   -5.9216   -4.3830 C   0  0  0  0  0  0
    3.5521   -4.1038   -2.0530 C   0  0  0  0  0  0
    4.6720   -4.8948   -2.0335 O   0  0  0  0  0  0
    4.5826   -5.9661   -1.1068 C   0  0  0  0  0  0
    3.5633   -2.8940   -1.3201 C   0  0  0  0  0  0
    4.8353   -2.4673   -0.5662 C   0  0  0  0  0  0
    5.0063   -0.9404   -0.3752 C   0  0  0  0  0  0
   -0.6966    1.1294   -0.3022 C   0  0  0  0  0  0
   -2.1057    1.1201   -0.2844 C   0  0  0  0  0  0
   -2.7969    2.2763   -0.6471 N   0  0  0  0  0  0
    1.7980    1.7864    1.1370 H   0  0  0  0  0  0
   -5.9810   -0.9453    0.4280 H   0  0  0  0  0  0
   -4.7052   -1.9894   -0.1869 H   0  0  0  0  0  0
   -4.6807   -1.4373    1.5058 H   0  0  0  0  0  0
   -2.5621   -2.1103    0.7622 H   0  0  0  0  0  0
   -0.1227   -2.0684    0.7293 H   0  0  0  0  0  0
    0.3672   -1.8736   -1.9114 H   0  0  0  0  0  0
   -1.8715   -3.9176   -3.8598 H   0  0  0  0  0  0
   -1.4291   -3.3368   -2.2591 H   0  0  0  0  0  0
   -0.9809   -2.4082   -3.7105 H   0  0  0  0  0  0
    3.0664   -6.4612   -5.2611 H   0  0  0  0  0  0
    3.9189   -5.0159   -4.7334 H   0  0  0  0  0  0
    4.1493   -6.5598   -3.8836 H   0  0  0  0  0  0
    5.5011   -6.5520   -1.1369 H   0  0  0  0  0  0
    4.4539   -5.5949   -0.0890 H   0  0  0  0  0  0
    3.7518   -6.6328   -1.3409 H   0  0  0  0  0  0
    4.7785   -2.9371    0.4162 H   0  0  0  0  0  0
    5.7284   -2.8682   -1.0455 H   0  0  0  0  0  0
    5.3934   -0.5083   -1.2984 H   0  0  0  0  0  0
    5.7440   -0.7314    0.4004 H   0  0  0  0  0  0
   -0.1713    2.0261   -0.5985 H   0  0  0  0  0  0
   -2.3107    3.1431   -0.8257 H   0  0  0  0  0  0
   -3.8016    2.3283   -0.5567 H   0  0  0  0  0  0
  1  2  1  0  0  0
  1 30  1  0  0  0
  1 31  1  0  0  0
  1 32  1  0  0  0
  2  3  1  0  0  0
  3 27  1  0  0  0
  3  4  2  0  0  0
  4  5  1  0  0  0
  4 33  1  0  0  0
  5  6  2  0  0  0
  5 34  1  0  0  0
  6  7  1  0  0  0
  6 26  1  0  0  0
  7 11  2  0  0  0
  7  8  1  0  0  0
  8 29  1  0  0  0
  8  9  1  0  0  0
  9 10  2  0  0  0
 10 25  1  0  0  0
 10 11  1  0  0  0
 11 12  1  0  0  0
 12 23  2  0  0  0
 12 13  1  0  0  0
 13 14  2  0  0  0
 13 35  1  0  0  0
 14 15  1  0  0  0
 14 17  1  0  0  0
 15 16  1  0  0  0
 16 36  1  0  0  0
 16 37  1  0  0  0
 16 38  1  0  0  0
 17 18  1  0  0  0
 17 20  2  0  0  0
 18 19  1  0  0  0
 19 39  1  0  0  0
 19 40  1  0  0  0
 19 41  1  0  0  0
 20 21  1  0  0  0
 20 23  1  0  0  0
 21 22  1  0  0  0
 22 42  1  0  0  0
 22 43  1  0  0  0
 22 44  1  0  0  0
 23 24  1  0  0  0
 24 25  1  0  0  0
 24 45  1  0  0  0
 24 46  1  0  0  0
 25 47  1  0  0  0
 25 48  1  0  0  0
 26 27  2  0  0  0
 26 49  1  0  0  0
 27 28  1  0  0  0
 28 50  1  0  0  0
 28 51  1  0  0  0
M  END
$$$$
320
                    3D
 Schrodinger Suite 2021-2.
 42 44  0  0  1  0            999 V2000
    0.0595    2.6062   -0.3399 C   0  0  0  0  0  0
   -0.6825    1.2828   -0.2585 C   0  0  0  0  0  0
   -2.0890    1.2910   -0.3621 C   0  0  0  0  0  0
   -2.8204    0.0908   -0.2951 C   0  0  0  0  0  0
   -2.1640   -1.1451   -0.1198 C   0  0  0  0  0  0
   -2.9293   -2.4021   -0.0503 C   0  0  0  0  0  0
   -2.7003   -3.2550   -1.0773 N   0  0  0  0  0  0
   -3.3389   -4.4263   -1.1529 N   0  0  0  0  0  0
   -4.2302   -4.7867   -0.2032 C   0  0  0  0  0  0
   -4.8479   -5.9962   -0.3455 O   0  0  0  0  0  0
   -4.5208   -3.9564    0.9034 C   0  0  0  0  0  0
   -5.4464   -4.3240    1.9058 C   0  0  0  0  0  0
   -5.6908   -3.4599    2.9900 C   0  0  0  0  0  0
   -5.0112   -2.2303    3.0795 C   0  0  0  0  0  0
   -4.0879   -1.8580    2.0833 C   0  0  0  0  0  0
   -3.8423   -2.7165    0.9868 C   0  0  0  0  0  0
   -0.7570   -1.1560   -0.0220 C   0  0  0  0  0  0
   -0.0150    0.0424   -0.0899 C   0  0  0  0  0  0
    1.7772   -0.0661    0.0602 S   0  0  0  0  0  0
    2.1553   -1.4821    0.1921 O   0  0  0  0  0  0
    2.4007    0.7673   -0.9789 O   0  0  0  0  0  0
    2.0788    0.6870    1.5834 N   0  0  1  0  0  0
    1.6141    0.0240    2.8016 C   0  0  0  0  0  0
    1.9190    0.8910    4.0307 C   0  0  0  0  0  0
    3.2271    0.6321    4.4932 O   0  0  0  0  0  0
   -0.6342    3.4474   -0.3353 H   0  0  0  0  0  0
    0.7317    2.7365    0.5068 H   0  0  0  0  0  0
    0.6384    2.6640   -1.2615 H   0  0  0  0  0  0
   -2.6186    2.2230   -0.4958 H   0  0  0  0  0  0
   -3.8971    0.1199   -0.3791 H   0  0  0  0  0  0
   -4.5661   -6.4566   -1.1209 H   0  0  0  0  0  0
   -5.9723   -5.2661    1.8530 H   0  0  0  0  0  0
   -6.3984   -3.7424    3.7557 H   0  0  0  0  0  0
   -5.1979   -1.5714    3.9147 H   0  0  0  0  0  0
   -3.5738   -0.9131    2.1755 H   0  0  0  0  0  0
   -0.2520   -2.1011    0.1106 H   0  0  0  0  0  0
    3.0526    0.9793    1.6645 H   0  0  0  0  0  0
    0.5363   -0.1190    2.7212 H   0  0  0  0  0  0
    2.0611   -0.9672    2.8886 H   0  0  0  0  0  0
    1.7909    1.9536    3.8204 H   0  0  0  0  0  0
    1.2304    0.6395    4.8378 H   0  0  0  0  0  0
    3.3851    1.1603    5.2609 H   0  0  0  0  0  0
  1  2  1  0  0  0
  1 26  1  0  0  0
  1 27  1  0  0  0
  1 28  1  0  0  0
  2 18  1  0  0  0
  2  3  2  0  0  0
  3  4  1  0  0  0
  3 29  1  0  0  0
  4  5  2  0  0  0
  4 30  1  0  0  0
  5  6  1  0  0  0
  5 17  1  0  0  0
  6 16  1  0  0  0
  6  7  2  0  0  0
  7  8  1  0  0  0
  8  9  2  0  0  0
  9 10  1  0  0  0
  9 11  1  0  0  0
 10 31  1  0  0  0
 11 16  2  0  0  0
 11 12  1  0  0  0
 12 13  2  0  0  0
 12 32  1  0  0  0
 13 14  1  0  0  0
 13 33  1  0  0  0
 14 15  2  0  0  0
 14 34  1  0  0  0
 15 16  1  0  0  0
 15 35  1  0  0  0
 17 18  2  0  0  0
 17 36  1  0  0  0
 18 19  1  0  0  0
 19 20  2  0  0  0
 19 21  2  0  0  0
 19 22  1  0  0  0
 22 23  1  0  0  0
 22 37  1  0  0  0
 23 24  1  0  0  0
 23 38  1  0  0  0
 23 39  1  0  0  0
 24 25  1  0  0  0
 24 40  1  0  0  0
 24 41  1  0  0  0
 25 42  1  0  0  0
M  END
$$$$
